version 3
run fail10_test36-0-20230525-00:39:36-1740309
attr configname fail10_test36
attr datetime 20230525-00:39:36
attr datetimef 20230525-003936
attr experiment fail10_test36
attr inifile omnetpp.ini
attr iterationvars ""
attr iterationvarsd ""
attr iterationvarsf ""
attr measurement ""
attr network Network
attr processid 1740309
attr repetition 0
attr replication #0
attr resultdir results
attr runnumber 0
attr seedset 0
config cmdenv-express-mode true
config image-path ../../../images
config **.scenarioManager.script "xmldoc(\"./scenarios/test36/sqsqScenario0.100.xml\")"
config **.app[0].sendInterval 0.002s
config **.app[0].messageLength "1024 bytes"
config **.ospfRouter_6_5.app[0].destAddresses "\"ospfRouter_5_5\""
config **.ospfRouter_7_5.app[0].destAddresses "\"ospfRouter_5_5\""
config **.ospfRouter_8_5.app[0].destAddresses "\"ospfRouter_5_5\""
config **.ospfRouter_9_5.app[0].destAddresses "\"ospfRouter_5_5\""
config network Network
config **.ospf.ospfConfig "xmldoc(\"sqsqASConfig.xml\")"
config warmup-period 20s
config sim-time-limit 130.001s
config **.ospfRouter_*_*.numApps 2
config **.app[0].typename UdpBasicApp
config **.app[0].destPort 1234
config **.app[0].messageLength "32 bytes"
config **.app[0].sendInterval 0.1s
config **.app[0].startTime 20s
config **.app[0].stopTime 120s
config **.app[1].typename UdpBasicApp
config **.app[1].localPort 1234
config **.app[1].destPort 1111
config **.app[1].messageLength "32 bytes"
config **.app[1].sendInterval 0.1s
config **.scalar-recording false
config **.vector-recording false
config **.arp.cacheTimeout 10s

par Network.ospfRouter_1_2.ethg$o[3].channel typename "\"inet.examples.ospfv2.sqsqtest.ISL1\""
par Network.ospfRouter_1_2.ethg$o[3].channel disabled false
attr mutable ""
par Network.ospfRouter_1_2.ethg$o[3].channel delay 0.004139s
attr mutable ""
attr unit s
par Network.ospfRouter_1_2.ethg$o[3].channel datarate 1e+07bps
attr mutable ""
attr unit bps
par Network.ospfRouter_1_2.ethg$o[3].channel ber 0
attr mutable ""
par Network.ospfRouter_1_2.ethg$o[3].channel per 0
attr mutable ""
par Network.ospfRouter_1_2.ethg$o[3].channel displayAsTooltip false
par Network.ospfRouter_1_2.ethg$o[3].channel thruputDisplayFormat "\"#N\""
par Network.ospfRouter_1_3.ethg$o[2].channel typename "\"inet.examples.ospfv2.sqsqtest.ISL1\""
par Network.ospfRouter_1_3.ethg$o[2].channel disabled false
attr mutable ""
par Network.ospfRouter_1_3.ethg$o[2].channel delay 0.004139s
attr mutable ""
attr unit s
par Network.ospfRouter_1_3.ethg$o[2].channel datarate 1e+07bps
attr mutable ""
attr unit bps
par Network.ospfRouter_1_3.ethg$o[2].channel ber 0
attr mutable ""
par Network.ospfRouter_1_3.ethg$o[2].channel per 0
attr mutable ""
par Network.ospfRouter_1_3.ethg$o[2].channel displayAsTooltip false
par Network.ospfRouter_1_3.ethg$o[2].channel thruputDisplayFormat "\"#N\""
par Network.ospfRouter_4_1.ethg$o[1].channel typename "\"inet.examples.ospfv2.sqsqtest.ISL0\""
par Network.ospfRouter_4_1.ethg$o[1].channel disabled false
attr mutable ""
par Network.ospfRouter_4_1.ethg$o[1].channel delay 0.013431s
attr mutable ""
attr unit s
par Network.ospfRouter_4_1.ethg$o[1].channel datarate 1e+07bps
attr mutable ""
attr unit bps
par Network.ospfRouter_4_1.ethg$o[1].channel ber 0
attr mutable ""
par Network.ospfRouter_4_1.ethg$o[1].channel per 0
attr mutable ""
par Network.ospfRouter_4_1.ethg$o[1].channel displayAsTooltip false
par Network.ospfRouter_4_1.ethg$o[1].channel thruputDisplayFormat "\"#N\""
par Network.ospfRouter_5_1.ethg$o[0].channel typename "\"inet.examples.ospfv2.sqsqtest.ISL0\""
par Network.ospfRouter_5_1.ethg$o[0].channel disabled false
attr mutable ""
par Network.ospfRouter_5_1.ethg$o[0].channel delay 0.013431s
attr mutable ""
attr unit s
par Network.ospfRouter_5_1.ethg$o[0].channel datarate 1e+07bps
attr mutable ""
attr unit bps
par Network.ospfRouter_5_1.ethg$o[0].channel ber 0
attr mutable ""
par Network.ospfRouter_5_1.ethg$o[0].channel per 0
attr mutable ""
par Network.ospfRouter_5_1.ethg$o[0].channel displayAsTooltip false
par Network.ospfRouter_5_1.ethg$o[0].channel thruputDisplayFormat "\"#N\""
par Network.ospfRouter_4_5.ethg$o[1].channel typename "\"inet.examples.ospfv2.sqsqtest.ISL0\""
par Network.ospfRouter_4_5.ethg$o[1].channel disabled false
attr mutable ""
par Network.ospfRouter_4_5.ethg$o[1].channel delay 0.013431s
attr mutable ""
attr unit s
par Network.ospfRouter_4_5.ethg$o[1].channel datarate 1e+07bps
attr mutable ""
attr unit bps
par Network.ospfRouter_4_5.ethg$o[1].channel ber 0
attr mutable ""
par Network.ospfRouter_4_5.ethg$o[1].channel per 0
attr mutable ""
par Network.ospfRouter_4_5.ethg$o[1].channel displayAsTooltip false
par Network.ospfRouter_4_5.ethg$o[1].channel thruputDisplayFormat "\"#N\""
par Network.ospfRouter_5_5.ethg$o[0].channel typename "\"inet.examples.ospfv2.sqsqtest.ISL0\""
par Network.ospfRouter_5_5.ethg$o[0].channel disabled false
attr mutable ""
par Network.ospfRouter_5_5.ethg$o[0].channel delay 0.013431s
attr mutable ""
attr unit s
par Network.ospfRouter_5_5.ethg$o[0].channel datarate 1e+07bps
attr mutable ""
attr unit bps
par Network.ospfRouter_5_5.ethg$o[0].channel ber 0
attr mutable ""
par Network.ospfRouter_5_5.ethg$o[0].channel per 0
attr mutable ""
par Network.ospfRouter_5_5.ethg$o[0].channel displayAsTooltip false
par Network.ospfRouter_5_5.ethg$o[0].channel thruputDisplayFormat "\"#N\""
par Network.ospfRouter_5_6.ethg$o[1].channel typename "\"inet.examples.ospfv2.sqsqtest.ISL0\""
par Network.ospfRouter_5_6.ethg$o[1].channel disabled false
attr mutable ""
par Network.ospfRouter_5_6.ethg$o[1].channel delay 0.013431s
attr mutable ""
attr unit s
par Network.ospfRouter_5_6.ethg$o[1].channel datarate 1e+07bps
attr mutable ""
attr unit bps
par Network.ospfRouter_5_6.ethg$o[1].channel ber 0
attr mutable ""
par Network.ospfRouter_5_6.ethg$o[1].channel per 0
attr mutable ""
par Network.ospfRouter_5_6.ethg$o[1].channel displayAsTooltip false
par Network.ospfRouter_5_6.ethg$o[1].channel thruputDisplayFormat "\"#N\""
par Network.ospfRouter_6_6.ethg$o[0].channel typename "\"inet.examples.ospfv2.sqsqtest.ISL0\""
par Network.ospfRouter_6_6.ethg$o[0].channel disabled false
attr mutable ""
par Network.ospfRouter_6_6.ethg$o[0].channel delay 0.013431s
attr mutable ""
attr unit s
par Network.ospfRouter_6_6.ethg$o[0].channel datarate 1e+07bps
attr mutable ""
attr unit bps
par Network.ospfRouter_6_6.ethg$o[0].channel ber 0
attr mutable ""
par Network.ospfRouter_6_6.ethg$o[0].channel per 0
attr mutable ""
par Network.ospfRouter_6_6.ethg$o[0].channel displayAsTooltip false
par Network.ospfRouter_6_6.ethg$o[0].channel thruputDisplayFormat "\"#N\""
par Network.ospfRouter_7_2.ethg$o[1].channel typename "\"inet.examples.ospfv2.sqsqtest.ISL0\""
par Network.ospfRouter_7_2.ethg$o[1].channel disabled false
attr mutable ""
par Network.ospfRouter_7_2.ethg$o[1].channel delay 0.013431s
attr mutable ""
attr unit s
par Network.ospfRouter_7_2.ethg$o[1].channel datarate 1e+07bps
attr mutable ""
attr unit bps
par Network.ospfRouter_7_2.ethg$o[1].channel ber 0
attr mutable ""
par Network.ospfRouter_7_2.ethg$o[1].channel per 0
attr mutable ""
par Network.ospfRouter_7_2.ethg$o[1].channel displayAsTooltip false
par Network.ospfRouter_7_2.ethg$o[1].channel thruputDisplayFormat "\"#N\""
par Network.ospfRouter_8_2.ethg$o[0].channel typename "\"inet.examples.ospfv2.sqsqtest.ISL0\""
par Network.ospfRouter_8_2.ethg$o[0].channel disabled false
attr mutable ""
par Network.ospfRouter_8_2.ethg$o[0].channel delay 0.013431s
attr mutable ""
attr unit s
par Network.ospfRouter_8_2.ethg$o[0].channel datarate 1e+07bps
attr mutable ""
attr unit bps
par Network.ospfRouter_8_2.ethg$o[0].channel ber 0
attr mutable ""
par Network.ospfRouter_8_2.ethg$o[0].channel per 0
attr mutable ""
par Network.ospfRouter_8_2.ethg$o[0].channel displayAsTooltip false
par Network.ospfRouter_8_2.ethg$o[0].channel thruputDisplayFormat "\"#N\""
par Network.ospfRouter_7_6.ethg$o[1].channel typename "\"inet.examples.ospfv2.sqsqtest.ISL0\""
par Network.ospfRouter_7_6.ethg$o[1].channel disabled false
attr mutable ""
par Network.ospfRouter_7_6.ethg$o[1].channel delay 0.013431s
attr mutable ""
attr unit s
par Network.ospfRouter_7_6.ethg$o[1].channel datarate 1e+07bps
attr mutable ""
attr unit bps
par Network.ospfRouter_7_6.ethg$o[1].channel ber 0
attr mutable ""
par Network.ospfRouter_7_6.ethg$o[1].channel per 0
attr mutable ""
par Network.ospfRouter_7_6.ethg$o[1].channel displayAsTooltip false
par Network.ospfRouter_7_6.ethg$o[1].channel thruputDisplayFormat "\"#N\""
par Network.ospfRouter_8_6.ethg$o[0].channel typename "\"inet.examples.ospfv2.sqsqtest.ISL0\""
par Network.ospfRouter_8_6.ethg$o[0].channel disabled false
attr mutable ""
par Network.ospfRouter_8_6.ethg$o[0].channel delay 0.013431s
attr mutable ""
attr unit s
par Network.ospfRouter_8_6.ethg$o[0].channel datarate 1e+07bps
attr mutable ""
attr unit bps
par Network.ospfRouter_8_6.ethg$o[0].channel ber 0
attr mutable ""
par Network.ospfRouter_8_6.ethg$o[0].channel per 0
attr mutable ""
par Network.ospfRouter_8_6.ethg$o[0].channel displayAsTooltip false
par Network.ospfRouter_8_6.ethg$o[0].channel thruputDisplayFormat "\"#N\""
par Network.ospfRouter_8_3.ethg$o[1].channel typename "\"inet.examples.ospfv2.sqsqtest.ISL0\""
par Network.ospfRouter_8_3.ethg$o[1].channel disabled false
attr mutable ""
par Network.ospfRouter_8_3.ethg$o[1].channel delay 0.013431s
attr mutable ""
attr unit s
par Network.ospfRouter_8_3.ethg$o[1].channel datarate 1e+07bps
attr mutable ""
attr unit bps
par Network.ospfRouter_8_3.ethg$o[1].channel ber 0
attr mutable ""
par Network.ospfRouter_8_3.ethg$o[1].channel per 0
attr mutable ""
par Network.ospfRouter_8_3.ethg$o[1].channel displayAsTooltip false
par Network.ospfRouter_8_3.ethg$o[1].channel thruputDisplayFormat "\"#N\""
par Network.ospfRouter_9_3.ethg$o[0].channel typename "\"inet.examples.ospfv2.sqsqtest.ISL0\""
par Network.ospfRouter_9_3.ethg$o[0].channel disabled false
attr mutable ""
par Network.ospfRouter_9_3.ethg$o[0].channel delay 0.013431s
attr mutable ""
attr unit s
par Network.ospfRouter_9_3.ethg$o[0].channel datarate 1e+07bps
attr mutable ""
attr unit bps
par Network.ospfRouter_9_3.ethg$o[0].channel ber 0
attr mutable ""
par Network.ospfRouter_9_3.ethg$o[0].channel per 0
attr mutable ""
par Network.ospfRouter_9_3.ethg$o[0].channel displayAsTooltip false
par Network.ospfRouter_9_3.ethg$o[0].channel thruputDisplayFormat "\"#N\""
par Network.ospfRouter_9_1.ethg$o[1].channel typename "\"inet.examples.ospfv2.sqsqtest.ISL0\""
par Network.ospfRouter_9_1.ethg$o[1].channel disabled false
attr mutable ""
par Network.ospfRouter_9_1.ethg$o[1].channel delay 0.013431s
attr mutable ""
attr unit s
par Network.ospfRouter_9_1.ethg$o[1].channel datarate 1e+07bps
attr mutable ""
attr unit bps
par Network.ospfRouter_9_1.ethg$o[1].channel ber 0
attr mutable ""
par Network.ospfRouter_9_1.ethg$o[1].channel per 0
attr mutable ""
par Network.ospfRouter_9_1.ethg$o[1].channel displayAsTooltip false
par Network.ospfRouter_9_1.ethg$o[1].channel thruputDisplayFormat "\"#N\""
par Network.ospfRouter_10_1.ethg$o[0].channel typename "\"inet.examples.ospfv2.sqsqtest.ISL0\""
par Network.ospfRouter_10_1.ethg$o[0].channel disabled false
attr mutable ""
par Network.ospfRouter_10_1.ethg$o[0].channel delay 0.013431s
attr mutable ""
attr unit s
par Network.ospfRouter_10_1.ethg$o[0].channel datarate 1e+07bps
attr mutable ""
attr unit bps
par Network.ospfRouter_10_1.ethg$o[0].channel ber 0
attr mutable ""
par Network.ospfRouter_10_1.ethg$o[0].channel per 0
attr mutable ""
par Network.ospfRouter_10_1.ethg$o[0].channel displayAsTooltip false
par Network.ospfRouter_10_1.ethg$o[0].channel thruputDisplayFormat "\"#N\""
par Network.ospfRouter_9_4.ethg$o[3].channel typename "\"inet.examples.ospfv2.sqsqtest.ISL9\""
par Network.ospfRouter_9_4.ethg$o[3].channel disabled false
attr mutable ""
par Network.ospfRouter_9_4.ethg$o[3].channel delay 0.023825s
attr mutable ""
attr unit s
par Network.ospfRouter_9_4.ethg$o[3].channel datarate 1e+07bps
attr mutable ""
attr unit bps
par Network.ospfRouter_9_4.ethg$o[3].channel ber 0
attr mutable ""
par Network.ospfRouter_9_4.ethg$o[3].channel per 0
attr mutable ""
par Network.ospfRouter_9_4.ethg$o[3].channel displayAsTooltip false
par Network.ospfRouter_9_4.ethg$o[3].channel thruputDisplayFormat "\"#N\""
par Network.ospfRouter_9_5.ethg$o[2].channel typename "\"inet.examples.ospfv2.sqsqtest.ISL9\""
par Network.ospfRouter_9_5.ethg$o[2].channel disabled false
attr mutable ""
par Network.ospfRouter_9_5.ethg$o[2].channel delay 0.023825s
attr mutable ""
attr unit s
par Network.ospfRouter_9_5.ethg$o[2].channel datarate 1e+07bps
attr mutable ""
attr unit bps
par Network.ospfRouter_9_5.ethg$o[2].channel ber 0
attr mutable ""
par Network.ospfRouter_9_5.ethg$o[2].channel per 0
attr mutable ""
par Network.ospfRouter_9_5.ethg$o[2].channel displayAsTooltip false
par Network.ospfRouter_9_5.ethg$o[2].channel thruputDisplayFormat "\"#N\""
par Network.ospfRouter_9_4.ethg$o[1].channel typename "\"inet.examples.ospfv2.sqsqtest.ISL0\""
par Network.ospfRouter_9_4.ethg$o[1].channel disabled false
attr mutable ""
par Network.ospfRouter_9_4.ethg$o[1].channel delay 0.013431s
attr mutable ""
attr unit s
par Network.ospfRouter_9_4.ethg$o[1].channel datarate 1e+07bps
attr mutable ""
attr unit bps
par Network.ospfRouter_9_4.ethg$o[1].channel ber 0
attr mutable ""
par Network.ospfRouter_9_4.ethg$o[1].channel per 0
attr mutable ""
par Network.ospfRouter_9_4.ethg$o[1].channel displayAsTooltip false
par Network.ospfRouter_9_4.ethg$o[1].channel thruputDisplayFormat "\"#N\""
par Network.ospfRouter_10_4.ethg$o[0].channel typename "\"inet.examples.ospfv2.sqsqtest.ISL0\""
par Network.ospfRouter_10_4.ethg$o[0].channel disabled false
attr mutable ""
par Network.ospfRouter_10_4.ethg$o[0].channel delay 0.013431s
attr mutable ""
attr unit s
par Network.ospfRouter_10_4.ethg$o[0].channel datarate 1e+07bps
attr mutable ""
attr unit bps
par Network.ospfRouter_10_4.ethg$o[0].channel ber 0
attr mutable ""
par Network.ospfRouter_10_4.ethg$o[0].channel per 0
attr mutable ""
par Network.ospfRouter_10_4.ethg$o[0].channel displayAsTooltip false
par Network.ospfRouter_10_4.ethg$o[0].channel thruputDisplayFormat "\"#N\""
par Network.ospfRouter_10_4.ethg$o[1].channel typename "\"inet.examples.ospfv2.sqsqtest.ISL0\""
par Network.ospfRouter_10_4.ethg$o[1].channel disabled false
attr mutable ""
par Network.ospfRouter_10_4.ethg$o[1].channel delay 0.013431s
attr mutable ""
attr unit s
par Network.ospfRouter_10_4.ethg$o[1].channel datarate 1e+07bps
attr mutable ""
attr unit bps
par Network.ospfRouter_10_4.ethg$o[1].channel ber 0
attr mutable ""
par Network.ospfRouter_10_4.ethg$o[1].channel per 0
attr mutable ""
par Network.ospfRouter_10_4.ethg$o[1].channel displayAsTooltip false
par Network.ospfRouter_10_4.ethg$o[1].channel thruputDisplayFormat "\"#N\""
par Network.ospfRouter_11_4.ethg$o[0].channel typename "\"inet.examples.ospfv2.sqsqtest.ISL0\""
par Network.ospfRouter_11_4.ethg$o[0].channel disabled false
attr mutable ""
par Network.ospfRouter_11_4.ethg$o[0].channel delay 0.013431s
attr mutable ""
attr unit s
par Network.ospfRouter_11_4.ethg$o[0].channel datarate 1e+07bps
attr mutable ""
attr unit bps
par Network.ospfRouter_11_4.ethg$o[0].channel ber 0
attr mutable ""
par Network.ospfRouter_11_4.ethg$o[0].channel per 0
attr mutable ""
par Network.ospfRouter_11_4.ethg$o[0].channel displayAsTooltip false
par Network.ospfRouter_11_4.ethg$o[0].channel thruputDisplayFormat "\"#N\""
par Network.ospfRouter_1_5.ethg$o[0].channel typename "\"inet.examples.ospfv2.sqsqtest.ISL0\""
par Network.ospfRouter_1_5.ethg$o[0].channel disabled false
attr mutable ""
par Network.ospfRouter_1_5.ethg$o[0].channel delay 0.013431s
attr mutable ""
attr unit s
par Network.ospfRouter_1_5.ethg$o[0].channel datarate 1e+07bps
attr mutable ""
attr unit bps
par Network.ospfRouter_1_5.ethg$o[0].channel ber 0
attr mutable ""
par Network.ospfRouter_1_5.ethg$o[0].channel per 0
attr mutable ""
par Network.ospfRouter_1_5.ethg$o[0].channel displayAsTooltip false
par Network.ospfRouter_1_5.ethg$o[0].channel thruputDisplayFormat "\"#N\""
par Network.ospfRouter_11_5.ethg$o[1].channel typename "\"inet.examples.ospfv2.sqsqtest.ISL0\""
par Network.ospfRouter_11_5.ethg$o[1].channel disabled false
attr mutable ""
par Network.ospfRouter_11_5.ethg$o[1].channel delay 0.013431s
attr mutable ""
attr unit s
par Network.ospfRouter_11_5.ethg$o[1].channel datarate 1e+07bps
attr mutable ""
attr unit bps
par Network.ospfRouter_11_5.ethg$o[1].channel ber 0
attr mutable ""
par Network.ospfRouter_11_5.ethg$o[1].channel per 0
attr mutable ""
par Network.ospfRouter_11_5.ethg$o[1].channel displayAsTooltip false
par Network.ospfRouter_11_5.ethg$o[1].channel thruputDisplayFormat "\"#N\""
par Network.ospfRouter_11_5.ethg$o[3].channel typename "\"inet.examples.ospfv2.sqsqtest.ISL11\""
par Network.ospfRouter_11_5.ethg$o[3].channel disabled false
attr mutable ""
par Network.ospfRouter_11_5.ethg$o[3].channel delay 0.009209s
attr mutable ""
attr unit s
par Network.ospfRouter_11_5.ethg$o[3].channel datarate 1e+07bps
attr mutable ""
attr unit bps
par Network.ospfRouter_11_5.ethg$o[3].channel ber 0
attr mutable ""
par Network.ospfRouter_11_5.ethg$o[3].channel per 0
attr mutable ""
par Network.ospfRouter_11_5.ethg$o[3].channel displayAsTooltip false
par Network.ospfRouter_11_5.ethg$o[3].channel thruputDisplayFormat "\"#N\""
par Network.ospfRouter_11_6.ethg$o[2].channel typename "\"inet.examples.ospfv2.sqsqtest.ISL11\""
par Network.ospfRouter_11_6.ethg$o[2].channel disabled false
attr mutable ""
par Network.ospfRouter_11_6.ethg$o[2].channel delay 0.009209s
attr mutable ""
attr unit s
par Network.ospfRouter_11_6.ethg$o[2].channel datarate 1e+07bps
attr mutable ""
attr unit bps
par Network.ospfRouter_11_6.ethg$o[2].channel ber 0
attr mutable ""
par Network.ospfRouter_11_6.ethg$o[2].channel per 0
attr mutable ""
par Network.ospfRouter_11_6.ethg$o[2].channel displayAsTooltip false
par Network.ospfRouter_11_6.ethg$o[2].channel thruputDisplayFormat "\"#N\""
par Network.ospfRouter_4_5.ethg$o[3].channel typename "\"inet.examples.ospfv2.sqsqtest.ISL4\""
par Network.ospfRouter_4_5.ethg$o[3].channel disabled false
attr mutable ""
par Network.ospfRouter_4_5.ethg$o[3].channel delay 0.022647s
attr mutable ""
attr unit s
par Network.ospfRouter_4_5.ethg$o[3].channel datarate 1e+07bps
attr mutable ""
attr unit bps
par Network.ospfRouter_4_5.ethg$o[3].channel ber 0
attr mutable ""
par Network.ospfRouter_4_5.ethg$o[3].channel per 0
attr mutable ""
par Network.ospfRouter_4_5.ethg$o[3].channel displayAsTooltip false
par Network.ospfRouter_4_5.ethg$o[3].channel thruputDisplayFormat "\"#N\""
par Network.ospfRouter_4_6.ethg$o[2].channel typename "\"inet.examples.ospfv2.sqsqtest.ISL4\""
par Network.ospfRouter_4_6.ethg$o[2].channel disabled false
attr mutable ""
par Network.ospfRouter_4_6.ethg$o[2].channel delay 0.022647s
attr mutable ""
attr unit s
par Network.ospfRouter_4_6.ethg$o[2].channel datarate 1e+07bps
attr mutable ""
attr unit bps
par Network.ospfRouter_4_6.ethg$o[2].channel ber 0
attr mutable ""
par Network.ospfRouter_4_6.ethg$o[2].channel per 0
attr mutable ""
par Network.ospfRouter_4_6.ethg$o[2].channel displayAsTooltip false
par Network.ospfRouter_4_6.ethg$o[2].channel thruputDisplayFormat "\"#N\""
par Network.ospfRouter_9_3.ethg$o[3].channel typename "\"inet.examples.ospfv2.sqsqtest.ISL9\""
par Network.ospfRouter_9_3.ethg$o[3].channel disabled false
attr mutable ""
par Network.ospfRouter_9_3.ethg$o[3].channel delay 0.023825s
attr mutable ""
attr unit s
par Network.ospfRouter_9_3.ethg$o[3].channel datarate 1e+07bps
attr mutable ""
attr unit bps
par Network.ospfRouter_9_3.ethg$o[3].channel ber 0
attr mutable ""
par Network.ospfRouter_9_3.ethg$o[3].channel per 0
attr mutable ""
par Network.ospfRouter_9_3.ethg$o[3].channel displayAsTooltip false
par Network.ospfRouter_9_3.ethg$o[3].channel thruputDisplayFormat "\"#N\""
par Network.ospfRouter_9_4.ethg$o[2].channel typename "\"inet.examples.ospfv2.sqsqtest.ISL9\""
par Network.ospfRouter_9_4.ethg$o[2].channel disabled false
attr mutable ""
par Network.ospfRouter_9_4.ethg$o[2].channel delay 0.023825s
attr mutable ""
attr unit s
par Network.ospfRouter_9_4.ethg$o[2].channel datarate 1e+07bps
attr mutable ""
attr unit bps
par Network.ospfRouter_9_4.ethg$o[2].channel ber 0
attr mutable ""
par Network.ospfRouter_9_4.ethg$o[2].channel per 0
attr mutable ""
par Network.ospfRouter_9_4.ethg$o[2].channel displayAsTooltip false
par Network.ospfRouter_9_4.ethg$o[2].channel thruputDisplayFormat "\"#N\""
par Network.ospfRouter_10_3.ethg$o[1].channel typename "\"inet.examples.ospfv2.sqsqtest.ISL0\""
par Network.ospfRouter_10_3.ethg$o[1].channel disabled false
attr mutable ""
par Network.ospfRouter_10_3.ethg$o[1].channel delay 0.013431s
attr mutable ""
attr unit s
par Network.ospfRouter_10_3.ethg$o[1].channel datarate 1e+07bps
attr mutable ""
attr unit bps
par Network.ospfRouter_10_3.ethg$o[1].channel ber 0
attr mutable ""
par Network.ospfRouter_10_3.ethg$o[1].channel per 0
attr mutable ""
par Network.ospfRouter_10_3.ethg$o[1].channel displayAsTooltip false
par Network.ospfRouter_10_3.ethg$o[1].channel thruputDisplayFormat "\"#N\""
par Network.ospfRouter_11_3.ethg$o[0].channel typename "\"inet.examples.ospfv2.sqsqtest.ISL0\""
par Network.ospfRouter_11_3.ethg$o[0].channel disabled false
attr mutable ""
par Network.ospfRouter_11_3.ethg$o[0].channel delay 0.013431s
attr mutable ""
attr unit s
par Network.ospfRouter_11_3.ethg$o[0].channel datarate 1e+07bps
attr mutable ""
attr unit bps
par Network.ospfRouter_11_3.ethg$o[0].channel ber 0
attr mutable ""
par Network.ospfRouter_11_3.ethg$o[0].channel per 0
attr mutable ""
par Network.ospfRouter_11_3.ethg$o[0].channel displayAsTooltip false
par Network.ospfRouter_11_3.ethg$o[0].channel thruputDisplayFormat "\"#N\""
par Network.ospfRouter_3_5.ethg$o[3].channel typename "\"inet.examples.ospfv2.sqsqtest.ISL3\""
par Network.ospfRouter_3_5.ethg$o[3].channel disabled false
attr mutable ""
par Network.ospfRouter_3_5.ethg$o[3].channel delay 0.023073s
attr mutable ""
attr unit s
par Network.ospfRouter_3_5.ethg$o[3].channel datarate 1e+07bps
attr mutable ""
attr unit bps
par Network.ospfRouter_3_5.ethg$o[3].channel ber 0
attr mutable ""
par Network.ospfRouter_3_5.ethg$o[3].channel per 0
attr mutable ""
par Network.ospfRouter_3_5.ethg$o[3].channel displayAsTooltip false
par Network.ospfRouter_3_5.ethg$o[3].channel thruputDisplayFormat "\"#N\""
par Network.ospfRouter_3_6.ethg$o[2].channel typename "\"inet.examples.ospfv2.sqsqtest.ISL3\""
par Network.ospfRouter_3_6.ethg$o[2].channel disabled false
attr mutable ""
par Network.ospfRouter_3_6.ethg$o[2].channel delay 0.023073s
attr mutable ""
attr unit s
par Network.ospfRouter_3_6.ethg$o[2].channel datarate 1e+07bps
attr mutable ""
attr unit bps
par Network.ospfRouter_3_6.ethg$o[2].channel ber 0
attr mutable ""
par Network.ospfRouter_3_6.ethg$o[2].channel per 0
attr mutable ""
par Network.ospfRouter_3_6.ethg$o[2].channel displayAsTooltip false
par Network.ospfRouter_3_6.ethg$o[2].channel thruputDisplayFormat "\"#N\""
par Network.ospfRouter_9_5.ethg$o[3].channel typename "\"inet.examples.ospfv2.sqsqtest.ISL9\""
par Network.ospfRouter_9_5.ethg$o[3].channel disabled false
attr mutable ""
par Network.ospfRouter_9_5.ethg$o[3].channel delay 0.023825s
attr mutable ""
attr unit s
par Network.ospfRouter_9_5.ethg$o[3].channel datarate 1e+07bps
attr mutable ""
attr unit bps
par Network.ospfRouter_9_5.ethg$o[3].channel ber 0
attr mutable ""
par Network.ospfRouter_9_5.ethg$o[3].channel per 0
attr mutable ""
par Network.ospfRouter_9_5.ethg$o[3].channel displayAsTooltip false
par Network.ospfRouter_9_5.ethg$o[3].channel thruputDisplayFormat "\"#N\""
par Network.ospfRouter_9_6.ethg$o[2].channel typename "\"inet.examples.ospfv2.sqsqtest.ISL9\""
par Network.ospfRouter_9_6.ethg$o[2].channel disabled false
attr mutable ""
par Network.ospfRouter_9_6.ethg$o[2].channel delay 0.023825s
attr mutable ""
attr unit s
par Network.ospfRouter_9_6.ethg$o[2].channel datarate 1e+07bps
attr mutable ""
attr unit bps
par Network.ospfRouter_9_6.ethg$o[2].channel ber 0
attr mutable ""
par Network.ospfRouter_9_6.ethg$o[2].channel per 0
attr mutable ""
par Network.ospfRouter_9_6.ethg$o[2].channel displayAsTooltip false
par Network.ospfRouter_9_6.ethg$o[2].channel thruputDisplayFormat "\"#N\""
par Network.ospfRouter_9_5.ethg$o[1].channel typename "\"inet.examples.ospfv2.sqsqtest.ISL0\""
par Network.ospfRouter_9_5.ethg$o[1].channel disabled false
attr mutable ""
par Network.ospfRouter_9_5.ethg$o[1].channel delay 0.013431s
attr mutable ""
attr unit s
par Network.ospfRouter_9_5.ethg$o[1].channel datarate 1e+07bps
attr mutable ""
attr unit bps
par Network.ospfRouter_9_5.ethg$o[1].channel ber 0
attr mutable ""
par Network.ospfRouter_9_5.ethg$o[1].channel per 0
attr mutable ""
par Network.ospfRouter_9_5.ethg$o[1].channel displayAsTooltip false
par Network.ospfRouter_9_5.ethg$o[1].channel thruputDisplayFormat "\"#N\""
par Network.ospfRouter_10_5.ethg$o[0].channel typename "\"inet.examples.ospfv2.sqsqtest.ISL0\""
par Network.ospfRouter_10_5.ethg$o[0].channel disabled false
attr mutable ""
par Network.ospfRouter_10_5.ethg$o[0].channel delay 0.013431s
attr mutable ""
attr unit s
par Network.ospfRouter_10_5.ethg$o[0].channel datarate 1e+07bps
attr mutable ""
attr unit bps
par Network.ospfRouter_10_5.ethg$o[0].channel ber 0
attr mutable ""
par Network.ospfRouter_10_5.ethg$o[0].channel per 0
attr mutable ""
par Network.ospfRouter_10_5.ethg$o[0].channel displayAsTooltip false
par Network.ospfRouter_10_5.ethg$o[0].channel thruputDisplayFormat "\"#N\""
par Network.ospfRouter_7_3.ethg$o[3].channel typename "\"inet.examples.ospfv2.sqsqtest.ISL7\""
par Network.ospfRouter_7_3.ethg$o[3].channel disabled false
attr mutable ""
par Network.ospfRouter_7_3.ethg$o[3].channel delay 0.010585s
attr mutable ""
attr unit s
par Network.ospfRouter_7_3.ethg$o[3].channel datarate 1e+07bps
attr mutable ""
attr unit bps
par Network.ospfRouter_7_3.ethg$o[3].channel ber 0
attr mutable ""
par Network.ospfRouter_7_3.ethg$o[3].channel per 0
attr mutable ""
par Network.ospfRouter_7_3.ethg$o[3].channel displayAsTooltip false
par Network.ospfRouter_7_3.ethg$o[3].channel thruputDisplayFormat "\"#N\""
par Network.ospfRouter_7_4.ethg$o[2].channel typename "\"inet.examples.ospfv2.sqsqtest.ISL7\""
par Network.ospfRouter_7_4.ethg$o[2].channel disabled false
attr mutable ""
par Network.ospfRouter_7_4.ethg$o[2].channel delay 0.010585s
attr mutable ""
attr unit s
par Network.ospfRouter_7_4.ethg$o[2].channel datarate 1e+07bps
attr mutable ""
attr unit bps
par Network.ospfRouter_7_4.ethg$o[2].channel ber 0
attr mutable ""
par Network.ospfRouter_7_4.ethg$o[2].channel per 0
attr mutable ""
par Network.ospfRouter_7_4.ethg$o[2].channel displayAsTooltip false
par Network.ospfRouter_7_4.ethg$o[2].channel thruputDisplayFormat "\"#N\""
par Network.ospfRouter_6_6.ethg$o[1].channel typename "\"inet.examples.ospfv2.sqsqtest.ISL0\""
par Network.ospfRouter_6_6.ethg$o[1].channel disabled false
attr mutable ""
par Network.ospfRouter_6_6.ethg$o[1].channel delay 0.013431s
attr mutable ""
attr unit s
par Network.ospfRouter_6_6.ethg$o[1].channel datarate 1e+07bps
attr mutable ""
attr unit bps
par Network.ospfRouter_6_6.ethg$o[1].channel ber 0
attr mutable ""
par Network.ospfRouter_6_6.ethg$o[1].channel per 0
attr mutable ""
par Network.ospfRouter_6_6.ethg$o[1].channel displayAsTooltip false
par Network.ospfRouter_6_6.ethg$o[1].channel thruputDisplayFormat "\"#N\""
par Network.ospfRouter_7_6.ethg$o[0].channel typename "\"inet.examples.ospfv2.sqsqtest.ISL0\""
par Network.ospfRouter_7_6.ethg$o[0].channel disabled false
attr mutable ""
par Network.ospfRouter_7_6.ethg$o[0].channel delay 0.013431s
attr mutable ""
attr unit s
par Network.ospfRouter_7_6.ethg$o[0].channel datarate 1e+07bps
attr mutable ""
attr unit bps
par Network.ospfRouter_7_6.ethg$o[0].channel ber 0
attr mutable ""
par Network.ospfRouter_7_6.ethg$o[0].channel per 0
attr mutable ""
par Network.ospfRouter_7_6.ethg$o[0].channel displayAsTooltip false
par Network.ospfRouter_7_6.ethg$o[0].channel thruputDisplayFormat "\"#N\""
par Network.ospfRouter_10_2.ethg$o[3].channel typename "\"inet.examples.ospfv2.sqsqtest.ISL10\""
par Network.ospfRouter_10_2.ethg$o[3].channel disabled false
attr mutable ""
par Network.ospfRouter_10_2.ethg$o[3].channel delay 0.019634s
attr mutable ""
attr unit s
par Network.ospfRouter_10_2.ethg$o[3].channel datarate 1e+07bps
attr mutable ""
attr unit bps
par Network.ospfRouter_10_2.ethg$o[3].channel ber 0
attr mutable ""
par Network.ospfRouter_10_2.ethg$o[3].channel per 0
attr mutable ""
par Network.ospfRouter_10_2.ethg$o[3].channel displayAsTooltip false
par Network.ospfRouter_10_2.ethg$o[3].channel thruputDisplayFormat "\"#N\""
par Network.ospfRouter_10_3.ethg$o[2].channel typename "\"inet.examples.ospfv2.sqsqtest.ISL10\""
par Network.ospfRouter_10_3.ethg$o[2].channel disabled false
attr mutable ""
par Network.ospfRouter_10_3.ethg$o[2].channel delay 0.019634s
attr mutable ""
attr unit s
par Network.ospfRouter_10_3.ethg$o[2].channel datarate 1e+07bps
attr mutable ""
attr unit bps
par Network.ospfRouter_10_3.ethg$o[2].channel ber 0
attr mutable ""
par Network.ospfRouter_10_3.ethg$o[2].channel per 0
attr mutable ""
par Network.ospfRouter_10_3.ethg$o[2].channel displayAsTooltip false
par Network.ospfRouter_10_3.ethg$o[2].channel thruputDisplayFormat "\"#N\""
par Network.ospfRouter_5_3.ethg$o[1].channel typename "\"inet.examples.ospfv2.sqsqtest.ISL0\""
par Network.ospfRouter_5_3.ethg$o[1].channel disabled false
attr mutable ""
par Network.ospfRouter_5_3.ethg$o[1].channel delay 0.013431s
attr mutable ""
attr unit s
par Network.ospfRouter_5_3.ethg$o[1].channel datarate 1e+07bps
attr mutable ""
attr unit bps
par Network.ospfRouter_5_3.ethg$o[1].channel ber 0
attr mutable ""
par Network.ospfRouter_5_3.ethg$o[1].channel per 0
attr mutable ""
par Network.ospfRouter_5_3.ethg$o[1].channel displayAsTooltip false
par Network.ospfRouter_5_3.ethg$o[1].channel thruputDisplayFormat "\"#N\""
par Network.ospfRouter_6_3.ethg$o[0].channel typename "\"inet.examples.ospfv2.sqsqtest.ISL0\""
par Network.ospfRouter_6_3.ethg$o[0].channel disabled false
attr mutable ""
par Network.ospfRouter_6_3.ethg$o[0].channel delay 0.013431s
attr mutable ""
attr unit s
par Network.ospfRouter_6_3.ethg$o[0].channel datarate 1e+07bps
attr mutable ""
attr unit bps
par Network.ospfRouter_6_3.ethg$o[0].channel ber 0
attr mutable ""
par Network.ospfRouter_6_3.ethg$o[0].channel per 0
attr mutable ""
par Network.ospfRouter_6_3.ethg$o[0].channel displayAsTooltip false
par Network.ospfRouter_6_3.ethg$o[0].channel thruputDisplayFormat "\"#N\""
par Network.ospfRouter_4_1.ethg$o[2].channel typename "\"inet.examples.ospfv2.sqsqtest.ISL4\""
par Network.ospfRouter_4_1.ethg$o[2].channel disabled false
attr mutable ""
par Network.ospfRouter_4_1.ethg$o[2].channel delay 0.022647s
attr mutable ""
attr unit s
par Network.ospfRouter_4_1.ethg$o[2].channel datarate 1e+07bps
attr mutable ""
attr unit bps
par Network.ospfRouter_4_1.ethg$o[2].channel ber 0
attr mutable ""
par Network.ospfRouter_4_1.ethg$o[2].channel per 0
attr mutable ""
par Network.ospfRouter_4_1.ethg$o[2].channel displayAsTooltip false
par Network.ospfRouter_4_1.ethg$o[2].channel thruputDisplayFormat "\"#N\""
par Network.ospfRouter_4_6.ethg$o[3].channel typename "\"inet.examples.ospfv2.sqsqtest.ISL4\""
par Network.ospfRouter_4_6.ethg$o[3].channel disabled false
attr mutable ""
par Network.ospfRouter_4_6.ethg$o[3].channel delay 0.022647s
attr mutable ""
attr unit s
par Network.ospfRouter_4_6.ethg$o[3].channel datarate 1e+07bps
attr mutable ""
attr unit bps
par Network.ospfRouter_4_6.ethg$o[3].channel ber 0
attr mutable ""
par Network.ospfRouter_4_6.ethg$o[3].channel per 0
attr mutable ""
par Network.ospfRouter_4_6.ethg$o[3].channel displayAsTooltip false
par Network.ospfRouter_4_6.ethg$o[3].channel thruputDisplayFormat "\"#N\""
par Network.ospfRouter_8_1.ethg$o[3].channel typename "\"inet.examples.ospfv2.sqsqtest.ISL8\""
par Network.ospfRouter_8_1.ethg$o[3].channel disabled false
attr mutable ""
par Network.ospfRouter_8_1.ethg$o[3].channel delay 0.020451s
attr mutable ""
attr unit s
par Network.ospfRouter_8_1.ethg$o[3].channel datarate 1e+07bps
attr mutable ""
attr unit bps
par Network.ospfRouter_8_1.ethg$o[3].channel ber 0
attr mutable ""
par Network.ospfRouter_8_1.ethg$o[3].channel per 0
attr mutable ""
par Network.ospfRouter_8_1.ethg$o[3].channel displayAsTooltip false
par Network.ospfRouter_8_1.ethg$o[3].channel thruputDisplayFormat "\"#N\""
par Network.ospfRouter_8_2.ethg$o[2].channel typename "\"inet.examples.ospfv2.sqsqtest.ISL8\""
par Network.ospfRouter_8_2.ethg$o[2].channel disabled false
attr mutable ""
par Network.ospfRouter_8_2.ethg$o[2].channel delay 0.020451s
attr mutable ""
attr unit s
par Network.ospfRouter_8_2.ethg$o[2].channel datarate 1e+07bps
attr mutable ""
attr unit bps
par Network.ospfRouter_8_2.ethg$o[2].channel ber 0
attr mutable ""
par Network.ospfRouter_8_2.ethg$o[2].channel per 0
attr mutable ""
par Network.ospfRouter_8_2.ethg$o[2].channel displayAsTooltip false
par Network.ospfRouter_8_2.ethg$o[2].channel thruputDisplayFormat "\"#N\""
par Network.ospfRouter_5_1.ethg$o[2].channel typename "\"inet.examples.ospfv2.sqsqtest.ISL5\""
par Network.ospfRouter_5_1.ethg$o[2].channel disabled false
attr mutable ""
par Network.ospfRouter_5_1.ethg$o[2].channel delay 0.01503s
attr mutable ""
attr unit s
par Network.ospfRouter_5_1.ethg$o[2].channel datarate 1e+07bps
attr mutable ""
attr unit bps
par Network.ospfRouter_5_1.ethg$o[2].channel ber 0
attr mutable ""
par Network.ospfRouter_5_1.ethg$o[2].channel per 0
attr mutable ""
par Network.ospfRouter_5_1.ethg$o[2].channel displayAsTooltip false
par Network.ospfRouter_5_1.ethg$o[2].channel thruputDisplayFormat "\"#N\""
par Network.ospfRouter_5_6.ethg$o[3].channel typename "\"inet.examples.ospfv2.sqsqtest.ISL5\""
par Network.ospfRouter_5_6.ethg$o[3].channel disabled false
attr mutable ""
par Network.ospfRouter_5_6.ethg$o[3].channel delay 0.01503s
attr mutable ""
attr unit s
par Network.ospfRouter_5_6.ethg$o[3].channel datarate 1e+07bps
attr mutable ""
attr unit bps
par Network.ospfRouter_5_6.ethg$o[3].channel ber 0
attr mutable ""
par Network.ospfRouter_5_6.ethg$o[3].channel per 0
attr mutable ""
par Network.ospfRouter_5_6.ethg$o[3].channel displayAsTooltip false
par Network.ospfRouter_5_6.ethg$o[3].channel thruputDisplayFormat "\"#N\""
par Network.ospfRouter_10_5.ethg$o[3].channel typename "\"inet.examples.ospfv2.sqsqtest.ISL10\""
par Network.ospfRouter_10_5.ethg$o[3].channel disabled false
attr mutable ""
par Network.ospfRouter_10_5.ethg$o[3].channel delay 0.019634s
attr mutable ""
attr unit s
par Network.ospfRouter_10_5.ethg$o[3].channel datarate 1e+07bps
attr mutable ""
attr unit bps
par Network.ospfRouter_10_5.ethg$o[3].channel ber 0
attr mutable ""
par Network.ospfRouter_10_5.ethg$o[3].channel per 0
attr mutable ""
par Network.ospfRouter_10_5.ethg$o[3].channel displayAsTooltip false
par Network.ospfRouter_10_5.ethg$o[3].channel thruputDisplayFormat "\"#N\""
par Network.ospfRouter_10_6.ethg$o[2].channel typename "\"inet.examples.ospfv2.sqsqtest.ISL10\""
par Network.ospfRouter_10_6.ethg$o[2].channel disabled false
attr mutable ""
par Network.ospfRouter_10_6.ethg$o[2].channel delay 0.019634s
attr mutable ""
attr unit s
par Network.ospfRouter_10_6.ethg$o[2].channel datarate 1e+07bps
attr mutable ""
attr unit bps
par Network.ospfRouter_10_6.ethg$o[2].channel ber 0
attr mutable ""
par Network.ospfRouter_10_6.ethg$o[2].channel per 0
attr mutable ""
par Network.ospfRouter_10_6.ethg$o[2].channel displayAsTooltip false
par Network.ospfRouter_10_6.ethg$o[2].channel thruputDisplayFormat "\"#N\""
par Network.ospfRouter_5_1.ethg$o[3].channel typename "\"inet.examples.ospfv2.sqsqtest.ISL5\""
par Network.ospfRouter_5_1.ethg$o[3].channel disabled false
attr mutable ""
par Network.ospfRouter_5_1.ethg$o[3].channel delay 0.01503s
attr mutable ""
attr unit s
par Network.ospfRouter_5_1.ethg$o[3].channel datarate 1e+07bps
attr mutable ""
attr unit bps
par Network.ospfRouter_5_1.ethg$o[3].channel ber 0
attr mutable ""
par Network.ospfRouter_5_1.ethg$o[3].channel per 0
attr mutable ""
par Network.ospfRouter_5_1.ethg$o[3].channel displayAsTooltip false
par Network.ospfRouter_5_1.ethg$o[3].channel thruputDisplayFormat "\"#N\""
par Network.ospfRouter_5_2.ethg$o[2].channel typename "\"inet.examples.ospfv2.sqsqtest.ISL5\""
par Network.ospfRouter_5_2.ethg$o[2].channel disabled false
attr mutable ""
par Network.ospfRouter_5_2.ethg$o[2].channel delay 0.01503s
attr mutable ""
attr unit s
par Network.ospfRouter_5_2.ethg$o[2].channel datarate 1e+07bps
attr mutable ""
attr unit bps
par Network.ospfRouter_5_2.ethg$o[2].channel ber 0
attr mutable ""
par Network.ospfRouter_5_2.ethg$o[2].channel per 0
attr mutable ""
par Network.ospfRouter_5_2.ethg$o[2].channel displayAsTooltip false
par Network.ospfRouter_5_2.ethg$o[2].channel thruputDisplayFormat "\"#N\""
par Network.ospfRouter_8_6.ethg$o[1].channel typename "\"inet.examples.ospfv2.sqsqtest.ISL0\""
par Network.ospfRouter_8_6.ethg$o[1].channel disabled false
attr mutable ""
par Network.ospfRouter_8_6.ethg$o[1].channel delay 0.013431s
attr mutable ""
attr unit s
par Network.ospfRouter_8_6.ethg$o[1].channel datarate 1e+07bps
attr mutable ""
attr unit bps
par Network.ospfRouter_8_6.ethg$o[1].channel ber 0
attr mutable ""
par Network.ospfRouter_8_6.ethg$o[1].channel per 0
attr mutable ""
par Network.ospfRouter_8_6.ethg$o[1].channel displayAsTooltip false
par Network.ospfRouter_8_6.ethg$o[1].channel thruputDisplayFormat "\"#N\""
par Network.ospfRouter_9_6.ethg$o[0].channel typename "\"inet.examples.ospfv2.sqsqtest.ISL0\""
par Network.ospfRouter_9_6.ethg$o[0].channel disabled false
attr mutable ""
par Network.ospfRouter_9_6.ethg$o[0].channel delay 0.013431s
attr mutable ""
attr unit s
par Network.ospfRouter_9_6.ethg$o[0].channel datarate 1e+07bps
attr mutable ""
attr unit bps
par Network.ospfRouter_9_6.ethg$o[0].channel ber 0
attr mutable ""
par Network.ospfRouter_9_6.ethg$o[0].channel per 0
attr mutable ""
par Network.ospfRouter_9_6.ethg$o[0].channel displayAsTooltip false
par Network.ospfRouter_9_6.ethg$o[0].channel thruputDisplayFormat "\"#N\""
par Network.ospfRouter_1_4.ethg$o[0].channel typename "\"inet.examples.ospfv2.sqsqtest.ISL0\""
par Network.ospfRouter_1_4.ethg$o[0].channel disabled false
attr mutable ""
par Network.ospfRouter_1_4.ethg$o[0].channel delay 0.013431s
attr mutable ""
attr unit s
par Network.ospfRouter_1_4.ethg$o[0].channel datarate 1e+07bps
attr mutable ""
attr unit bps
par Network.ospfRouter_1_4.ethg$o[0].channel ber 0
attr mutable ""
par Network.ospfRouter_1_4.ethg$o[0].channel per 0
attr mutable ""
par Network.ospfRouter_1_4.ethg$o[0].channel displayAsTooltip false
par Network.ospfRouter_1_4.ethg$o[0].channel thruputDisplayFormat "\"#N\""
par Network.ospfRouter_11_4.ethg$o[1].channel typename "\"inet.examples.ospfv2.sqsqtest.ISL0\""
par Network.ospfRouter_11_4.ethg$o[1].channel disabled false
attr mutable ""
par Network.ospfRouter_11_4.ethg$o[1].channel delay 0.013431s
attr mutable ""
attr unit s
par Network.ospfRouter_11_4.ethg$o[1].channel datarate 1e+07bps
attr mutable ""
attr unit bps
par Network.ospfRouter_11_4.ethg$o[1].channel ber 0
attr mutable ""
par Network.ospfRouter_11_4.ethg$o[1].channel per 0
attr mutable ""
par Network.ospfRouter_11_4.ethg$o[1].channel displayAsTooltip false
par Network.ospfRouter_11_4.ethg$o[1].channel thruputDisplayFormat "\"#N\""
par Network.ospfRouter_3_2.ethg$o[3].channel typename "\"inet.examples.ospfv2.sqsqtest.ISL3\""
par Network.ospfRouter_3_2.ethg$o[3].channel disabled false
attr mutable ""
par Network.ospfRouter_3_2.ethg$o[3].channel delay 0.023073s
attr mutable ""
attr unit s
par Network.ospfRouter_3_2.ethg$o[3].channel datarate 1e+07bps
attr mutable ""
attr unit bps
par Network.ospfRouter_3_2.ethg$o[3].channel ber 0
attr mutable ""
par Network.ospfRouter_3_2.ethg$o[3].channel per 0
attr mutable ""
par Network.ospfRouter_3_2.ethg$o[3].channel displayAsTooltip false
par Network.ospfRouter_3_2.ethg$o[3].channel thruputDisplayFormat "\"#N\""
par Network.ospfRouter_3_3.ethg$o[2].channel typename "\"inet.examples.ospfv2.sqsqtest.ISL3\""
par Network.ospfRouter_3_3.ethg$o[2].channel disabled false
attr mutable ""
par Network.ospfRouter_3_3.ethg$o[2].channel delay 0.023073s
attr mutable ""
attr unit s
par Network.ospfRouter_3_3.ethg$o[2].channel datarate 1e+07bps
attr mutable ""
attr unit bps
par Network.ospfRouter_3_3.ethg$o[2].channel ber 0
attr mutable ""
par Network.ospfRouter_3_3.ethg$o[2].channel per 0
attr mutable ""
par Network.ospfRouter_3_3.ethg$o[2].channel displayAsTooltip false
par Network.ospfRouter_3_3.ethg$o[2].channel thruputDisplayFormat "\"#N\""
par Network.ospfRouter_9_2.ethg$o[1].channel typename "\"inet.examples.ospfv2.sqsqtest.ISL0\""
par Network.ospfRouter_9_2.ethg$o[1].channel disabled false
attr mutable ""
par Network.ospfRouter_9_2.ethg$o[1].channel delay 0.013431s
attr mutable ""
attr unit s
par Network.ospfRouter_9_2.ethg$o[1].channel datarate 1e+07bps
attr mutable ""
attr unit bps
par Network.ospfRouter_9_2.ethg$o[1].channel ber 0
attr mutable ""
par Network.ospfRouter_9_2.ethg$o[1].channel per 0
attr mutable ""
par Network.ospfRouter_9_2.ethg$o[1].channel displayAsTooltip false
par Network.ospfRouter_9_2.ethg$o[1].channel thruputDisplayFormat "\"#N\""
par Network.ospfRouter_10_2.ethg$o[0].channel typename "\"inet.examples.ospfv2.sqsqtest.ISL0\""
par Network.ospfRouter_10_2.ethg$o[0].channel disabled false
attr mutable ""
par Network.ospfRouter_10_2.ethg$o[0].channel delay 0.013431s
attr mutable ""
attr unit s
par Network.ospfRouter_10_2.ethg$o[0].channel datarate 1e+07bps
attr mutable ""
attr unit bps
par Network.ospfRouter_10_2.ethg$o[0].channel ber 0
attr mutable ""
par Network.ospfRouter_10_2.ethg$o[0].channel per 0
attr mutable ""
par Network.ospfRouter_10_2.ethg$o[0].channel displayAsTooltip false
par Network.ospfRouter_10_2.ethg$o[0].channel thruputDisplayFormat "\"#N\""
par Network.ospfRouter_2_5.ethg$o[3].channel typename "\"inet.examples.ospfv2.sqsqtest.ISL2\""
par Network.ospfRouter_2_5.ethg$o[3].channel disabled false
attr mutable ""
par Network.ospfRouter_2_5.ethg$o[3].channel delay 0.016173s
attr mutable ""
attr unit s
par Network.ospfRouter_2_5.ethg$o[3].channel datarate 1e+07bps
attr mutable ""
attr unit bps
par Network.ospfRouter_2_5.ethg$o[3].channel ber 0
attr mutable ""
par Network.ospfRouter_2_5.ethg$o[3].channel per 0
attr mutable ""
par Network.ospfRouter_2_5.ethg$o[3].channel displayAsTooltip false
par Network.ospfRouter_2_5.ethg$o[3].channel thruputDisplayFormat "\"#N\""
par Network.ospfRouter_2_6.ethg$o[2].channel typename "\"inet.examples.ospfv2.sqsqtest.ISL2\""
par Network.ospfRouter_2_6.ethg$o[2].channel disabled false
attr mutable ""
par Network.ospfRouter_2_6.ethg$o[2].channel delay 0.016173s
attr mutable ""
attr unit s
par Network.ospfRouter_2_6.ethg$o[2].channel datarate 1e+07bps
attr mutable ""
attr unit bps
par Network.ospfRouter_2_6.ethg$o[2].channel ber 0
attr mutable ""
par Network.ospfRouter_2_6.ethg$o[2].channel per 0
attr mutable ""
par Network.ospfRouter_2_6.ethg$o[2].channel displayAsTooltip false
par Network.ospfRouter_2_6.ethg$o[2].channel thruputDisplayFormat "\"#N\""
par Network.ospfRouter_3_5.ethg$o[1].channel typename "\"inet.examples.ospfv2.sqsqtest.ISL0\""
par Network.ospfRouter_3_5.ethg$o[1].channel disabled false
attr mutable ""
par Network.ospfRouter_3_5.ethg$o[1].channel delay 0.013431s
attr mutable ""
attr unit s
par Network.ospfRouter_3_5.ethg$o[1].channel datarate 1e+07bps
attr mutable ""
attr unit bps
par Network.ospfRouter_3_5.ethg$o[1].channel ber 0
attr mutable ""
par Network.ospfRouter_3_5.ethg$o[1].channel per 0
attr mutable ""
par Network.ospfRouter_3_5.ethg$o[1].channel displayAsTooltip false
par Network.ospfRouter_3_5.ethg$o[1].channel thruputDisplayFormat "\"#N\""
par Network.ospfRouter_4_5.ethg$o[0].channel typename "\"inet.examples.ospfv2.sqsqtest.ISL0\""
par Network.ospfRouter_4_5.ethg$o[0].channel disabled false
attr mutable ""
par Network.ospfRouter_4_5.ethg$o[0].channel delay 0.013431s
attr mutable ""
attr unit s
par Network.ospfRouter_4_5.ethg$o[0].channel datarate 1e+07bps
attr mutable ""
attr unit bps
par Network.ospfRouter_4_5.ethg$o[0].channel ber 0
attr mutable ""
par Network.ospfRouter_4_5.ethg$o[0].channel per 0
attr mutable ""
par Network.ospfRouter_4_5.ethg$o[0].channel displayAsTooltip false
par Network.ospfRouter_4_5.ethg$o[0].channel thruputDisplayFormat "\"#N\""
par Network.ospfRouter_11_4.ethg$o[3].channel typename "\"inet.examples.ospfv2.sqsqtest.ISL11\""
par Network.ospfRouter_11_4.ethg$o[3].channel disabled false
attr mutable ""
par Network.ospfRouter_11_4.ethg$o[3].channel delay 0.009209s
attr mutable ""
attr unit s
par Network.ospfRouter_11_4.ethg$o[3].channel datarate 1e+07bps
attr mutable ""
attr unit bps
par Network.ospfRouter_11_4.ethg$o[3].channel ber 0
attr mutable ""
par Network.ospfRouter_11_4.ethg$o[3].channel per 0
attr mutable ""
par Network.ospfRouter_11_4.ethg$o[3].channel displayAsTooltip false
par Network.ospfRouter_11_4.ethg$o[3].channel thruputDisplayFormat "\"#N\""
par Network.ospfRouter_11_5.ethg$o[2].channel typename "\"inet.examples.ospfv2.sqsqtest.ISL11\""
par Network.ospfRouter_11_5.ethg$o[2].channel disabled false
attr mutable ""
par Network.ospfRouter_11_5.ethg$o[2].channel delay 0.009209s
attr mutable ""
attr unit s
par Network.ospfRouter_11_5.ethg$o[2].channel datarate 1e+07bps
attr mutable ""
attr unit bps
par Network.ospfRouter_11_5.ethg$o[2].channel ber 0
attr mutable ""
par Network.ospfRouter_11_5.ethg$o[2].channel per 0
attr mutable ""
par Network.ospfRouter_11_5.ethg$o[2].channel displayAsTooltip false
par Network.ospfRouter_11_5.ethg$o[2].channel thruputDisplayFormat "\"#N\""
par Network.ospfRouter_1_3.ethg$o[1].channel typename "\"inet.examples.ospfv2.sqsqtest.ISL0\""
par Network.ospfRouter_1_3.ethg$o[1].channel disabled false
attr mutable ""
par Network.ospfRouter_1_3.ethg$o[1].channel delay 0.013431s
attr mutable ""
attr unit s
par Network.ospfRouter_1_3.ethg$o[1].channel datarate 1e+07bps
attr mutable ""
attr unit bps
par Network.ospfRouter_1_3.ethg$o[1].channel ber 0
attr mutable ""
par Network.ospfRouter_1_3.ethg$o[1].channel per 0
attr mutable ""
par Network.ospfRouter_1_3.ethg$o[1].channel displayAsTooltip false
par Network.ospfRouter_1_3.ethg$o[1].channel thruputDisplayFormat "\"#N\""
par Network.ospfRouter_2_3.ethg$o[0].channel typename "\"inet.examples.ospfv2.sqsqtest.ISL0\""
par Network.ospfRouter_2_3.ethg$o[0].channel disabled false
attr mutable ""
par Network.ospfRouter_2_3.ethg$o[0].channel delay 0.013431s
attr mutable ""
attr unit s
par Network.ospfRouter_2_3.ethg$o[0].channel datarate 1e+07bps
attr mutable ""
attr unit bps
par Network.ospfRouter_2_3.ethg$o[0].channel ber 0
attr mutable ""
par Network.ospfRouter_2_3.ethg$o[0].channel per 0
attr mutable ""
par Network.ospfRouter_2_3.ethg$o[0].channel displayAsTooltip false
par Network.ospfRouter_2_3.ethg$o[0].channel thruputDisplayFormat "\"#N\""
par Network.ospfRouter_8_3.ethg$o[3].channel typename "\"inet.examples.ospfv2.sqsqtest.ISL8\""
par Network.ospfRouter_8_3.ethg$o[3].channel disabled false
attr mutable ""
par Network.ospfRouter_8_3.ethg$o[3].channel delay 0.020451s
attr mutable ""
attr unit s
par Network.ospfRouter_8_3.ethg$o[3].channel datarate 1e+07bps
attr mutable ""
attr unit bps
par Network.ospfRouter_8_3.ethg$o[3].channel ber 0
attr mutable ""
par Network.ospfRouter_8_3.ethg$o[3].channel per 0
attr mutable ""
par Network.ospfRouter_8_3.ethg$o[3].channel displayAsTooltip false
par Network.ospfRouter_8_3.ethg$o[3].channel thruputDisplayFormat "\"#N\""
par Network.ospfRouter_8_4.ethg$o[2].channel typename "\"inet.examples.ospfv2.sqsqtest.ISL8\""
par Network.ospfRouter_8_4.ethg$o[2].channel disabled false
attr mutable ""
par Network.ospfRouter_8_4.ethg$o[2].channel delay 0.020451s
attr mutable ""
attr unit s
par Network.ospfRouter_8_4.ethg$o[2].channel datarate 1e+07bps
attr mutable ""
attr unit bps
par Network.ospfRouter_8_4.ethg$o[2].channel ber 0
attr mutable ""
par Network.ospfRouter_8_4.ethg$o[2].channel per 0
attr mutable ""
par Network.ospfRouter_8_4.ethg$o[2].channel displayAsTooltip false
par Network.ospfRouter_8_4.ethg$o[2].channel thruputDisplayFormat "\"#N\""
par Network.ospfRouter_5_3.ethg$o[3].channel typename "\"inet.examples.ospfv2.sqsqtest.ISL5\""
par Network.ospfRouter_5_3.ethg$o[3].channel disabled false
attr mutable ""
par Network.ospfRouter_5_3.ethg$o[3].channel delay 0.01503s
attr mutable ""
attr unit s
par Network.ospfRouter_5_3.ethg$o[3].channel datarate 1e+07bps
attr mutable ""
attr unit bps
par Network.ospfRouter_5_3.ethg$o[3].channel ber 0
attr mutable ""
par Network.ospfRouter_5_3.ethg$o[3].channel per 0
attr mutable ""
par Network.ospfRouter_5_3.ethg$o[3].channel displayAsTooltip false
par Network.ospfRouter_5_3.ethg$o[3].channel thruputDisplayFormat "\"#N\""
par Network.ospfRouter_5_4.ethg$o[2].channel typename "\"inet.examples.ospfv2.sqsqtest.ISL5\""
par Network.ospfRouter_5_4.ethg$o[2].channel disabled false
attr mutable ""
par Network.ospfRouter_5_4.ethg$o[2].channel delay 0.01503s
attr mutable ""
attr unit s
par Network.ospfRouter_5_4.ethg$o[2].channel datarate 1e+07bps
attr mutable ""
attr unit bps
par Network.ospfRouter_5_4.ethg$o[2].channel ber 0
attr mutable ""
par Network.ospfRouter_5_4.ethg$o[2].channel per 0
attr mutable ""
par Network.ospfRouter_5_4.ethg$o[2].channel displayAsTooltip false
par Network.ospfRouter_5_4.ethg$o[2].channel thruputDisplayFormat "\"#N\""
par Network.ospfRouter_7_4.ethg$o[3].channel typename "\"inet.examples.ospfv2.sqsqtest.ISL7\""
par Network.ospfRouter_7_4.ethg$o[3].channel disabled false
attr mutable ""
par Network.ospfRouter_7_4.ethg$o[3].channel delay 0.010585s
attr mutable ""
attr unit s
par Network.ospfRouter_7_4.ethg$o[3].channel datarate 1e+07bps
attr mutable ""
attr unit bps
par Network.ospfRouter_7_4.ethg$o[3].channel ber 0
attr mutable ""
par Network.ospfRouter_7_4.ethg$o[3].channel per 0
attr mutable ""
par Network.ospfRouter_7_4.ethg$o[3].channel displayAsTooltip false
par Network.ospfRouter_7_4.ethg$o[3].channel thruputDisplayFormat "\"#N\""
par Network.ospfRouter_7_5.ethg$o[2].channel typename "\"inet.examples.ospfv2.sqsqtest.ISL7\""
par Network.ospfRouter_7_5.ethg$o[2].channel disabled false
attr mutable ""
par Network.ospfRouter_7_5.ethg$o[2].channel delay 0.010585s
attr mutable ""
attr unit s
par Network.ospfRouter_7_5.ethg$o[2].channel datarate 1e+07bps
attr mutable ""
attr unit bps
par Network.ospfRouter_7_5.ethg$o[2].channel ber 0
attr mutable ""
par Network.ospfRouter_7_5.ethg$o[2].channel per 0
attr mutable ""
par Network.ospfRouter_7_5.ethg$o[2].channel displayAsTooltip false
par Network.ospfRouter_7_5.ethg$o[2].channel thruputDisplayFormat "\"#N\""
par Network.ospfRouter_10_6.ethg$o[1].channel typename "\"inet.examples.ospfv2.sqsqtest.ISL0\""
par Network.ospfRouter_10_6.ethg$o[1].channel disabled false
attr mutable ""
par Network.ospfRouter_10_6.ethg$o[1].channel delay 0.013431s
attr mutable ""
attr unit s
par Network.ospfRouter_10_6.ethg$o[1].channel datarate 1e+07bps
attr mutable ""
attr unit bps
par Network.ospfRouter_10_6.ethg$o[1].channel ber 0
attr mutable ""
par Network.ospfRouter_10_6.ethg$o[1].channel per 0
attr mutable ""
par Network.ospfRouter_10_6.ethg$o[1].channel displayAsTooltip false
par Network.ospfRouter_10_6.ethg$o[1].channel thruputDisplayFormat "\"#N\""
par Network.ospfRouter_11_6.ethg$o[0].channel typename "\"inet.examples.ospfv2.sqsqtest.ISL0\""
par Network.ospfRouter_11_6.ethg$o[0].channel disabled false
attr mutable ""
par Network.ospfRouter_11_6.ethg$o[0].channel delay 0.013431s
attr mutable ""
attr unit s
par Network.ospfRouter_11_6.ethg$o[0].channel datarate 1e+07bps
attr mutable ""
attr unit bps
par Network.ospfRouter_11_6.ethg$o[0].channel ber 0
attr mutable ""
par Network.ospfRouter_11_6.ethg$o[0].channel per 0
attr mutable ""
par Network.ospfRouter_11_6.ethg$o[0].channel displayAsTooltip false
par Network.ospfRouter_11_6.ethg$o[0].channel thruputDisplayFormat "\"#N\""
par Network.ospfRouter_9_6.ethg$o[1].channel typename "\"inet.examples.ospfv2.sqsqtest.ISL0\""
par Network.ospfRouter_9_6.ethg$o[1].channel disabled false
attr mutable ""
par Network.ospfRouter_9_6.ethg$o[1].channel delay 0.013431s
attr mutable ""
attr unit s
par Network.ospfRouter_9_6.ethg$o[1].channel datarate 1e+07bps
attr mutable ""
attr unit bps
par Network.ospfRouter_9_6.ethg$o[1].channel ber 0
attr mutable ""
par Network.ospfRouter_9_6.ethg$o[1].channel per 0
attr mutable ""
par Network.ospfRouter_9_6.ethg$o[1].channel displayAsTooltip false
par Network.ospfRouter_9_6.ethg$o[1].channel thruputDisplayFormat "\"#N\""
par Network.ospfRouter_10_6.ethg$o[0].channel typename "\"inet.examples.ospfv2.sqsqtest.ISL0\""
par Network.ospfRouter_10_6.ethg$o[0].channel disabled false
attr mutable ""
par Network.ospfRouter_10_6.ethg$o[0].channel delay 0.013431s
attr mutable ""
attr unit s
par Network.ospfRouter_10_6.ethg$o[0].channel datarate 1e+07bps
attr mutable ""
attr unit bps
par Network.ospfRouter_10_6.ethg$o[0].channel ber 0
attr mutable ""
par Network.ospfRouter_10_6.ethg$o[0].channel per 0
attr mutable ""
par Network.ospfRouter_10_6.ethg$o[0].channel displayAsTooltip false
par Network.ospfRouter_10_6.ethg$o[0].channel thruputDisplayFormat "\"#N\""
par Network.ospfRouter_4_2.ethg$o[3].channel typename "\"inet.examples.ospfv2.sqsqtest.ISL4\""
par Network.ospfRouter_4_2.ethg$o[3].channel disabled false
attr mutable ""
par Network.ospfRouter_4_2.ethg$o[3].channel delay 0.022647s
attr mutable ""
attr unit s
par Network.ospfRouter_4_2.ethg$o[3].channel datarate 1e+07bps
attr mutable ""
attr unit bps
par Network.ospfRouter_4_2.ethg$o[3].channel ber 0
attr mutable ""
par Network.ospfRouter_4_2.ethg$o[3].channel per 0
attr mutable ""
par Network.ospfRouter_4_2.ethg$o[3].channel displayAsTooltip false
par Network.ospfRouter_4_2.ethg$o[3].channel thruputDisplayFormat "\"#N\""
par Network.ospfRouter_4_3.ethg$o[2].channel typename "\"inet.examples.ospfv2.sqsqtest.ISL4\""
par Network.ospfRouter_4_3.ethg$o[2].channel disabled false
attr mutable ""
par Network.ospfRouter_4_3.ethg$o[2].channel delay 0.022647s
attr mutable ""
attr unit s
par Network.ospfRouter_4_3.ethg$o[2].channel datarate 1e+07bps
attr mutable ""
attr unit bps
par Network.ospfRouter_4_3.ethg$o[2].channel ber 0
attr mutable ""
par Network.ospfRouter_4_3.ethg$o[2].channel per 0
attr mutable ""
par Network.ospfRouter_4_3.ethg$o[2].channel displayAsTooltip false
par Network.ospfRouter_4_3.ethg$o[2].channel thruputDisplayFormat "\"#N\""
par Network.ospfRouter_9_1.ethg$o[3].channel typename "\"inet.examples.ospfv2.sqsqtest.ISL9\""
par Network.ospfRouter_9_1.ethg$o[3].channel disabled false
attr mutable ""
par Network.ospfRouter_9_1.ethg$o[3].channel delay 0.023825s
attr mutable ""
attr unit s
par Network.ospfRouter_9_1.ethg$o[3].channel datarate 1e+07bps
attr mutable ""
attr unit bps
par Network.ospfRouter_9_1.ethg$o[3].channel ber 0
attr mutable ""
par Network.ospfRouter_9_1.ethg$o[3].channel per 0
attr mutable ""
par Network.ospfRouter_9_1.ethg$o[3].channel displayAsTooltip false
par Network.ospfRouter_9_1.ethg$o[3].channel thruputDisplayFormat "\"#N\""
par Network.ospfRouter_9_2.ethg$o[2].channel typename "\"inet.examples.ospfv2.sqsqtest.ISL9\""
par Network.ospfRouter_9_2.ethg$o[2].channel disabled false
attr mutable ""
par Network.ospfRouter_9_2.ethg$o[2].channel delay 0.023825s
attr mutable ""
attr unit s
par Network.ospfRouter_9_2.ethg$o[2].channel datarate 1e+07bps
attr mutable ""
attr unit bps
par Network.ospfRouter_9_2.ethg$o[2].channel ber 0
attr mutable ""
par Network.ospfRouter_9_2.ethg$o[2].channel per 0
attr mutable ""
par Network.ospfRouter_9_2.ethg$o[2].channel displayAsTooltip false
par Network.ospfRouter_9_2.ethg$o[2].channel thruputDisplayFormat "\"#N\""
par Network.ospfRouter_3_3.ethg$o[3].channel typename "\"inet.examples.ospfv2.sqsqtest.ISL3\""
par Network.ospfRouter_3_3.ethg$o[3].channel disabled false
attr mutable ""
par Network.ospfRouter_3_3.ethg$o[3].channel delay 0.023073s
attr mutable ""
attr unit s
par Network.ospfRouter_3_3.ethg$o[3].channel datarate 1e+07bps
attr mutable ""
attr unit bps
par Network.ospfRouter_3_3.ethg$o[3].channel ber 0
attr mutable ""
par Network.ospfRouter_3_3.ethg$o[3].channel per 0
attr mutable ""
par Network.ospfRouter_3_3.ethg$o[3].channel displayAsTooltip false
par Network.ospfRouter_3_3.ethg$o[3].channel thruputDisplayFormat "\"#N\""
par Network.ospfRouter_3_4.ethg$o[2].channel typename "\"inet.examples.ospfv2.sqsqtest.ISL3\""
par Network.ospfRouter_3_4.ethg$o[2].channel disabled false
attr mutable ""
par Network.ospfRouter_3_4.ethg$o[2].channel delay 0.023073s
attr mutable ""
attr unit s
par Network.ospfRouter_3_4.ethg$o[2].channel datarate 1e+07bps
attr mutable ""
attr unit bps
par Network.ospfRouter_3_4.ethg$o[2].channel ber 0
attr mutable ""
par Network.ospfRouter_3_4.ethg$o[2].channel per 0
attr mutable ""
par Network.ospfRouter_3_4.ethg$o[2].channel displayAsTooltip false
par Network.ospfRouter_3_4.ethg$o[2].channel thruputDisplayFormat "\"#N\""
par Network.ospfRouter_6_5.ethg$o[3].channel typename "\"inet.examples.ospfv2.sqsqtest.ISL6\""
par Network.ospfRouter_6_5.ethg$o[3].channel disabled false
attr mutable ""
par Network.ospfRouter_6_5.ethg$o[3].channel delay 0.002642s
attr mutable ""
attr unit s
par Network.ospfRouter_6_5.ethg$o[3].channel datarate 1e+07bps
attr mutable ""
attr unit bps
par Network.ospfRouter_6_5.ethg$o[3].channel ber 0
attr mutable ""
par Network.ospfRouter_6_5.ethg$o[3].channel per 0
attr mutable ""
par Network.ospfRouter_6_5.ethg$o[3].channel displayAsTooltip false
par Network.ospfRouter_6_5.ethg$o[3].channel thruputDisplayFormat "\"#N\""
par Network.ospfRouter_6_6.ethg$o[2].channel typename "\"inet.examples.ospfv2.sqsqtest.ISL6\""
par Network.ospfRouter_6_6.ethg$o[2].channel disabled false
attr mutable ""
par Network.ospfRouter_6_6.ethg$o[2].channel delay 0.002642s
attr mutable ""
attr unit s
par Network.ospfRouter_6_6.ethg$o[2].channel datarate 1e+07bps
attr mutable ""
attr unit bps
par Network.ospfRouter_6_6.ethg$o[2].channel ber 0
attr mutable ""
par Network.ospfRouter_6_6.ethg$o[2].channel per 0
attr mutable ""
par Network.ospfRouter_6_6.ethg$o[2].channel displayAsTooltip false
par Network.ospfRouter_6_6.ethg$o[2].channel thruputDisplayFormat "\"#N\""
par Network.ospfRouter_5_4.ethg$o[1].channel typename "\"inet.examples.ospfv2.sqsqtest.ISL0\""
par Network.ospfRouter_5_4.ethg$o[1].channel disabled false
attr mutable ""
par Network.ospfRouter_5_4.ethg$o[1].channel delay 0.013431s
attr mutable ""
attr unit s
par Network.ospfRouter_5_4.ethg$o[1].channel datarate 1e+07bps
attr mutable ""
attr unit bps
par Network.ospfRouter_5_4.ethg$o[1].channel ber 0
attr mutable ""
par Network.ospfRouter_5_4.ethg$o[1].channel per 0
attr mutable ""
par Network.ospfRouter_5_4.ethg$o[1].channel displayAsTooltip false
par Network.ospfRouter_5_4.ethg$o[1].channel thruputDisplayFormat "\"#N\""
par Network.ospfRouter_6_4.ethg$o[0].channel typename "\"inet.examples.ospfv2.sqsqtest.ISL0\""
par Network.ospfRouter_6_4.ethg$o[0].channel disabled false
attr mutable ""
par Network.ospfRouter_6_4.ethg$o[0].channel delay 0.013431s
attr mutable ""
attr unit s
par Network.ospfRouter_6_4.ethg$o[0].channel datarate 1e+07bps
attr mutable ""
attr unit bps
par Network.ospfRouter_6_4.ethg$o[0].channel ber 0
attr mutable ""
par Network.ospfRouter_6_4.ethg$o[0].channel per 0
attr mutable ""
par Network.ospfRouter_6_4.ethg$o[0].channel displayAsTooltip false
par Network.ospfRouter_6_4.ethg$o[0].channel thruputDisplayFormat "\"#N\""
par Network.ospfRouter_10_1.ethg$o[2].channel typename "\"inet.examples.ospfv2.sqsqtest.ISL10\""
par Network.ospfRouter_10_1.ethg$o[2].channel disabled false
attr mutable ""
par Network.ospfRouter_10_1.ethg$o[2].channel delay 0.019634s
attr mutable ""
attr unit s
par Network.ospfRouter_10_1.ethg$o[2].channel datarate 1e+07bps
attr mutable ""
attr unit bps
par Network.ospfRouter_10_1.ethg$o[2].channel ber 0
attr mutable ""
par Network.ospfRouter_10_1.ethg$o[2].channel per 0
attr mutable ""
par Network.ospfRouter_10_1.ethg$o[2].channel displayAsTooltip false
par Network.ospfRouter_10_1.ethg$o[2].channel thruputDisplayFormat "\"#N\""
par Network.ospfRouter_10_6.ethg$o[3].channel typename "\"inet.examples.ospfv2.sqsqtest.ISL10\""
par Network.ospfRouter_10_6.ethg$o[3].channel disabled false
attr mutable ""
par Network.ospfRouter_10_6.ethg$o[3].channel delay 0.019634s
attr mutable ""
attr unit s
par Network.ospfRouter_10_6.ethg$o[3].channel datarate 1e+07bps
attr mutable ""
attr unit bps
par Network.ospfRouter_10_6.ethg$o[3].channel ber 0
attr mutable ""
par Network.ospfRouter_10_6.ethg$o[3].channel per 0
attr mutable ""
par Network.ospfRouter_10_6.ethg$o[3].channel displayAsTooltip false
par Network.ospfRouter_10_6.ethg$o[3].channel thruputDisplayFormat "\"#N\""
par Network.ospfRouter_2_3.ethg$o[1].channel typename "\"inet.examples.ospfv2.sqsqtest.ISL0\""
par Network.ospfRouter_2_3.ethg$o[1].channel disabled false
attr mutable ""
par Network.ospfRouter_2_3.ethg$o[1].channel delay 0.013431s
attr mutable ""
attr unit s
par Network.ospfRouter_2_3.ethg$o[1].channel datarate 1e+07bps
attr mutable ""
attr unit bps
par Network.ospfRouter_2_3.ethg$o[1].channel ber 0
attr mutable ""
par Network.ospfRouter_2_3.ethg$o[1].channel per 0
attr mutable ""
par Network.ospfRouter_2_3.ethg$o[1].channel displayAsTooltip false
par Network.ospfRouter_2_3.ethg$o[1].channel thruputDisplayFormat "\"#N\""
par Network.ospfRouter_3_3.ethg$o[0].channel typename "\"inet.examples.ospfv2.sqsqtest.ISL0\""
par Network.ospfRouter_3_3.ethg$o[0].channel disabled false
attr mutable ""
par Network.ospfRouter_3_3.ethg$o[0].channel delay 0.013431s
attr mutable ""
attr unit s
par Network.ospfRouter_3_3.ethg$o[0].channel datarate 1e+07bps
attr mutable ""
attr unit bps
par Network.ospfRouter_3_3.ethg$o[0].channel ber 0
attr mutable ""
par Network.ospfRouter_3_3.ethg$o[0].channel per 0
attr mutable ""
par Network.ospfRouter_3_3.ethg$o[0].channel displayAsTooltip false
par Network.ospfRouter_3_3.ethg$o[0].channel thruputDisplayFormat "\"#N\""
par Network.ospfRouter_5_2.ethg$o[3].channel typename "\"inet.examples.ospfv2.sqsqtest.ISL5\""
par Network.ospfRouter_5_2.ethg$o[3].channel disabled false
attr mutable ""
par Network.ospfRouter_5_2.ethg$o[3].channel delay 0.01503s
attr mutable ""
attr unit s
par Network.ospfRouter_5_2.ethg$o[3].channel datarate 1e+07bps
attr mutable ""
attr unit bps
par Network.ospfRouter_5_2.ethg$o[3].channel ber 0
attr mutable ""
par Network.ospfRouter_5_2.ethg$o[3].channel per 0
attr mutable ""
par Network.ospfRouter_5_2.ethg$o[3].channel displayAsTooltip false
par Network.ospfRouter_5_2.ethg$o[3].channel thruputDisplayFormat "\"#N\""
par Network.ospfRouter_5_3.ethg$o[2].channel typename "\"inet.examples.ospfv2.sqsqtest.ISL5\""
par Network.ospfRouter_5_3.ethg$o[2].channel disabled false
attr mutable ""
par Network.ospfRouter_5_3.ethg$o[2].channel delay 0.01503s
attr mutable ""
attr unit s
par Network.ospfRouter_5_3.ethg$o[2].channel datarate 1e+07bps
attr mutable ""
attr unit bps
par Network.ospfRouter_5_3.ethg$o[2].channel ber 0
attr mutable ""
par Network.ospfRouter_5_3.ethg$o[2].channel per 0
attr mutable ""
par Network.ospfRouter_5_3.ethg$o[2].channel displayAsTooltip false
par Network.ospfRouter_5_3.ethg$o[2].channel thruputDisplayFormat "\"#N\""
par Network.ospfRouter_7_1.ethg$o[2].channel typename "\"inet.examples.ospfv2.sqsqtest.ISL7\""
par Network.ospfRouter_7_1.ethg$o[2].channel disabled false
attr mutable ""
par Network.ospfRouter_7_1.ethg$o[2].channel delay 0.010585s
attr mutable ""
attr unit s
par Network.ospfRouter_7_1.ethg$o[2].channel datarate 1e+07bps
attr mutable ""
attr unit bps
par Network.ospfRouter_7_1.ethg$o[2].channel ber 0
attr mutable ""
par Network.ospfRouter_7_1.ethg$o[2].channel per 0
attr mutable ""
par Network.ospfRouter_7_1.ethg$o[2].channel displayAsTooltip false
par Network.ospfRouter_7_1.ethg$o[2].channel thruputDisplayFormat "\"#N\""
par Network.ospfRouter_7_6.ethg$o[3].channel typename "\"inet.examples.ospfv2.sqsqtest.ISL7\""
par Network.ospfRouter_7_6.ethg$o[3].channel disabled false
attr mutable ""
par Network.ospfRouter_7_6.ethg$o[3].channel delay 0.010585s
attr mutable ""
attr unit s
par Network.ospfRouter_7_6.ethg$o[3].channel datarate 1e+07bps
attr mutable ""
attr unit bps
par Network.ospfRouter_7_6.ethg$o[3].channel ber 0
attr mutable ""
par Network.ospfRouter_7_6.ethg$o[3].channel per 0
attr mutable ""
par Network.ospfRouter_7_6.ethg$o[3].channel displayAsTooltip false
par Network.ospfRouter_7_6.ethg$o[3].channel thruputDisplayFormat "\"#N\""
par Network.ospfRouter_8_5.ethg$o[3].channel typename "\"inet.examples.ospfv2.sqsqtest.ISL8\""
par Network.ospfRouter_8_5.ethg$o[3].channel disabled false
attr mutable ""
par Network.ospfRouter_8_5.ethg$o[3].channel delay 0.020451s
attr mutable ""
attr unit s
par Network.ospfRouter_8_5.ethg$o[3].channel datarate 1e+07bps
attr mutable ""
attr unit bps
par Network.ospfRouter_8_5.ethg$o[3].channel ber 0
attr mutable ""
par Network.ospfRouter_8_5.ethg$o[3].channel per 0
attr mutable ""
par Network.ospfRouter_8_5.ethg$o[3].channel displayAsTooltip false
par Network.ospfRouter_8_5.ethg$o[3].channel thruputDisplayFormat "\"#N\""
par Network.ospfRouter_8_6.ethg$o[2].channel typename "\"inet.examples.ospfv2.sqsqtest.ISL8\""
par Network.ospfRouter_8_6.ethg$o[2].channel disabled false
attr mutable ""
par Network.ospfRouter_8_6.ethg$o[2].channel delay 0.020451s
attr mutable ""
attr unit s
par Network.ospfRouter_8_6.ethg$o[2].channel datarate 1e+07bps
attr mutable ""
attr unit bps
par Network.ospfRouter_8_6.ethg$o[2].channel ber 0
attr mutable ""
par Network.ospfRouter_8_6.ethg$o[2].channel per 0
attr mutable ""
par Network.ospfRouter_8_6.ethg$o[2].channel displayAsTooltip false
par Network.ospfRouter_8_6.ethg$o[2].channel thruputDisplayFormat "\"#N\""
par Network.ospfRouter_3_1.ethg$o[3].channel typename "\"inet.examples.ospfv2.sqsqtest.ISL3\""
par Network.ospfRouter_3_1.ethg$o[3].channel disabled false
attr mutable ""
par Network.ospfRouter_3_1.ethg$o[3].channel delay 0.023073s
attr mutable ""
attr unit s
par Network.ospfRouter_3_1.ethg$o[3].channel datarate 1e+07bps
attr mutable ""
attr unit bps
par Network.ospfRouter_3_1.ethg$o[3].channel ber 0
attr mutable ""
par Network.ospfRouter_3_1.ethg$o[3].channel per 0
attr mutable ""
par Network.ospfRouter_3_1.ethg$o[3].channel displayAsTooltip false
par Network.ospfRouter_3_1.ethg$o[3].channel thruputDisplayFormat "\"#N\""
par Network.ospfRouter_3_2.ethg$o[2].channel typename "\"inet.examples.ospfv2.sqsqtest.ISL3\""
par Network.ospfRouter_3_2.ethg$o[2].channel disabled false
attr mutable ""
par Network.ospfRouter_3_2.ethg$o[2].channel delay 0.023073s
attr mutable ""
attr unit s
par Network.ospfRouter_3_2.ethg$o[2].channel datarate 1e+07bps
attr mutable ""
attr unit bps
par Network.ospfRouter_3_2.ethg$o[2].channel ber 0
attr mutable ""
par Network.ospfRouter_3_2.ethg$o[2].channel per 0
attr mutable ""
par Network.ospfRouter_3_2.ethg$o[2].channel displayAsTooltip false
par Network.ospfRouter_3_2.ethg$o[2].channel thruputDisplayFormat "\"#N\""
par Network.ospfRouter_11_1.ethg$o[3].channel typename "\"inet.examples.ospfv2.sqsqtest.ISL11\""
par Network.ospfRouter_11_1.ethg$o[3].channel disabled false
attr mutable ""
par Network.ospfRouter_11_1.ethg$o[3].channel delay 0.009209s
attr mutable ""
attr unit s
par Network.ospfRouter_11_1.ethg$o[3].channel datarate 1e+07bps
attr mutable ""
attr unit bps
par Network.ospfRouter_11_1.ethg$o[3].channel ber 0
attr mutable ""
par Network.ospfRouter_11_1.ethg$o[3].channel per 0
attr mutable ""
par Network.ospfRouter_11_1.ethg$o[3].channel displayAsTooltip false
par Network.ospfRouter_11_1.ethg$o[3].channel thruputDisplayFormat "\"#N\""
par Network.ospfRouter_11_2.ethg$o[2].channel typename "\"inet.examples.ospfv2.sqsqtest.ISL11\""
par Network.ospfRouter_11_2.ethg$o[2].channel disabled false
attr mutable ""
par Network.ospfRouter_11_2.ethg$o[2].channel delay 0.009209s
attr mutable ""
attr unit s
par Network.ospfRouter_11_2.ethg$o[2].channel datarate 1e+07bps
attr mutable ""
attr unit bps
par Network.ospfRouter_11_2.ethg$o[2].channel ber 0
attr mutable ""
par Network.ospfRouter_11_2.ethg$o[2].channel per 0
attr mutable ""
par Network.ospfRouter_11_2.ethg$o[2].channel displayAsTooltip false
par Network.ospfRouter_11_2.ethg$o[2].channel thruputDisplayFormat "\"#N\""
par Network.ospfRouter_1_3.ethg$o[3].channel typename "\"inet.examples.ospfv2.sqsqtest.ISL1\""
par Network.ospfRouter_1_3.ethg$o[3].channel disabled false
attr mutable ""
par Network.ospfRouter_1_3.ethg$o[3].channel delay 0.004139s
attr mutable ""
attr unit s
par Network.ospfRouter_1_3.ethg$o[3].channel datarate 1e+07bps
attr mutable ""
attr unit bps
par Network.ospfRouter_1_3.ethg$o[3].channel ber 0
attr mutable ""
par Network.ospfRouter_1_3.ethg$o[3].channel per 0
attr mutable ""
par Network.ospfRouter_1_3.ethg$o[3].channel displayAsTooltip false
par Network.ospfRouter_1_3.ethg$o[3].channel thruputDisplayFormat "\"#N\""
par Network.ospfRouter_1_4.ethg$o[2].channel typename "\"inet.examples.ospfv2.sqsqtest.ISL1\""
par Network.ospfRouter_1_4.ethg$o[2].channel disabled false
attr mutable ""
par Network.ospfRouter_1_4.ethg$o[2].channel delay 0.004139s
attr mutable ""
attr unit s
par Network.ospfRouter_1_4.ethg$o[2].channel datarate 1e+07bps
attr mutable ""
attr unit bps
par Network.ospfRouter_1_4.ethg$o[2].channel ber 0
attr mutable ""
par Network.ospfRouter_1_4.ethg$o[2].channel per 0
attr mutable ""
par Network.ospfRouter_1_4.ethg$o[2].channel displayAsTooltip false
par Network.ospfRouter_1_4.ethg$o[2].channel thruputDisplayFormat "\"#N\""
par Network.ospfRouter_8_5.ethg$o[1].channel typename "\"inet.examples.ospfv2.sqsqtest.ISL0\""
par Network.ospfRouter_8_5.ethg$o[1].channel disabled false
attr mutable ""
par Network.ospfRouter_8_5.ethg$o[1].channel delay 0.013431s
attr mutable ""
attr unit s
par Network.ospfRouter_8_5.ethg$o[1].channel datarate 1e+07bps
attr mutable ""
attr unit bps
par Network.ospfRouter_8_5.ethg$o[1].channel ber 0
attr mutable ""
par Network.ospfRouter_8_5.ethg$o[1].channel per 0
attr mutable ""
par Network.ospfRouter_8_5.ethg$o[1].channel displayAsTooltip false
par Network.ospfRouter_8_5.ethg$o[1].channel thruputDisplayFormat "\"#N\""
par Network.ospfRouter_9_5.ethg$o[0].channel typename "\"inet.examples.ospfv2.sqsqtest.ISL0\""
par Network.ospfRouter_9_5.ethg$o[0].channel disabled false
attr mutable ""
par Network.ospfRouter_9_5.ethg$o[0].channel delay 0.013431s
attr mutable ""
attr unit s
par Network.ospfRouter_9_5.ethg$o[0].channel datarate 1e+07bps
attr mutable ""
attr unit bps
par Network.ospfRouter_9_5.ethg$o[0].channel ber 0
attr mutable ""
par Network.ospfRouter_9_5.ethg$o[0].channel per 0
attr mutable ""
par Network.ospfRouter_9_5.ethg$o[0].channel displayAsTooltip false
par Network.ospfRouter_9_5.ethg$o[0].channel thruputDisplayFormat "\"#N\""
par Network.ospfRouter_3_4.ethg$o[3].channel typename "\"inet.examples.ospfv2.sqsqtest.ISL3\""
par Network.ospfRouter_3_4.ethg$o[3].channel disabled false
attr mutable ""
par Network.ospfRouter_3_4.ethg$o[3].channel delay 0.023073s
attr mutable ""
attr unit s
par Network.ospfRouter_3_4.ethg$o[3].channel datarate 1e+07bps
attr mutable ""
attr unit bps
par Network.ospfRouter_3_4.ethg$o[3].channel ber 0
attr mutable ""
par Network.ospfRouter_3_4.ethg$o[3].channel per 0
attr mutable ""
par Network.ospfRouter_3_4.ethg$o[3].channel displayAsTooltip false
par Network.ospfRouter_3_4.ethg$o[3].channel thruputDisplayFormat "\"#N\""
par Network.ospfRouter_3_5.ethg$o[2].channel typename "\"inet.examples.ospfv2.sqsqtest.ISL3\""
par Network.ospfRouter_3_5.ethg$o[2].channel disabled false
attr mutable ""
par Network.ospfRouter_3_5.ethg$o[2].channel delay 0.023073s
attr mutable ""
attr unit s
par Network.ospfRouter_3_5.ethg$o[2].channel datarate 1e+07bps
attr mutable ""
attr unit bps
par Network.ospfRouter_3_5.ethg$o[2].channel ber 0
attr mutable ""
par Network.ospfRouter_3_5.ethg$o[2].channel per 0
attr mutable ""
par Network.ospfRouter_3_5.ethg$o[2].channel displayAsTooltip false
par Network.ospfRouter_3_5.ethg$o[2].channel thruputDisplayFormat "\"#N\""
par Network.ospfRouter_6_4.ethg$o[1].channel typename "\"inet.examples.ospfv2.sqsqtest.ISL0\""
par Network.ospfRouter_6_4.ethg$o[1].channel disabled false
attr mutable ""
par Network.ospfRouter_6_4.ethg$o[1].channel delay 0.013431s
attr mutable ""
attr unit s
par Network.ospfRouter_6_4.ethg$o[1].channel datarate 1e+07bps
attr mutable ""
attr unit bps
par Network.ospfRouter_6_4.ethg$o[1].channel ber 0
attr mutable ""
par Network.ospfRouter_6_4.ethg$o[1].channel per 0
attr mutable ""
par Network.ospfRouter_6_4.ethg$o[1].channel displayAsTooltip false
par Network.ospfRouter_6_4.ethg$o[1].channel thruputDisplayFormat "\"#N\""
par Network.ospfRouter_7_4.ethg$o[0].channel typename "\"inet.examples.ospfv2.sqsqtest.ISL0\""
par Network.ospfRouter_7_4.ethg$o[0].channel disabled false
attr mutable ""
par Network.ospfRouter_7_4.ethg$o[0].channel delay 0.013431s
attr mutable ""
attr unit s
par Network.ospfRouter_7_4.ethg$o[0].channel datarate 1e+07bps
attr mutable ""
attr unit bps
par Network.ospfRouter_7_4.ethg$o[0].channel ber 0
attr mutable ""
par Network.ospfRouter_7_4.ethg$o[0].channel per 0
attr mutable ""
par Network.ospfRouter_7_4.ethg$o[0].channel displayAsTooltip false
par Network.ospfRouter_7_4.ethg$o[0].channel thruputDisplayFormat "\"#N\""
par Network.ospfRouter_10_1.ethg$o[3].channel typename "\"inet.examples.ospfv2.sqsqtest.ISL10\""
par Network.ospfRouter_10_1.ethg$o[3].channel disabled false
attr mutable ""
par Network.ospfRouter_10_1.ethg$o[3].channel delay 0.019634s
attr mutable ""
attr unit s
par Network.ospfRouter_10_1.ethg$o[3].channel datarate 1e+07bps
attr mutable ""
attr unit bps
par Network.ospfRouter_10_1.ethg$o[3].channel ber 0
attr mutable ""
par Network.ospfRouter_10_1.ethg$o[3].channel per 0
attr mutable ""
par Network.ospfRouter_10_1.ethg$o[3].channel displayAsTooltip false
par Network.ospfRouter_10_1.ethg$o[3].channel thruputDisplayFormat "\"#N\""
par Network.ospfRouter_10_2.ethg$o[2].channel typename "\"inet.examples.ospfv2.sqsqtest.ISL10\""
par Network.ospfRouter_10_2.ethg$o[2].channel disabled false
attr mutable ""
par Network.ospfRouter_10_2.ethg$o[2].channel delay 0.019634s
attr mutable ""
attr unit s
par Network.ospfRouter_10_2.ethg$o[2].channel datarate 1e+07bps
attr mutable ""
attr unit bps
par Network.ospfRouter_10_2.ethg$o[2].channel ber 0
attr mutable ""
par Network.ospfRouter_10_2.ethg$o[2].channel per 0
attr mutable ""
par Network.ospfRouter_10_2.ethg$o[2].channel displayAsTooltip false
par Network.ospfRouter_10_2.ethg$o[2].channel thruputDisplayFormat "\"#N\""
par Network.ospfRouter_7_1.ethg$o[3].channel typename "\"inet.examples.ospfv2.sqsqtest.ISL7\""
par Network.ospfRouter_7_1.ethg$o[3].channel disabled false
attr mutable ""
par Network.ospfRouter_7_1.ethg$o[3].channel delay 0.010585s
attr mutable ""
attr unit s
par Network.ospfRouter_7_1.ethg$o[3].channel datarate 1e+07bps
attr mutable ""
attr unit bps
par Network.ospfRouter_7_1.ethg$o[3].channel ber 0
attr mutable ""
par Network.ospfRouter_7_1.ethg$o[3].channel per 0
attr mutable ""
par Network.ospfRouter_7_1.ethg$o[3].channel displayAsTooltip false
par Network.ospfRouter_7_1.ethg$o[3].channel thruputDisplayFormat "\"#N\""
par Network.ospfRouter_7_2.ethg$o[2].channel typename "\"inet.examples.ospfv2.sqsqtest.ISL7\""
par Network.ospfRouter_7_2.ethg$o[2].channel disabled false
attr mutable ""
par Network.ospfRouter_7_2.ethg$o[2].channel delay 0.010585s
attr mutable ""
attr unit s
par Network.ospfRouter_7_2.ethg$o[2].channel datarate 1e+07bps
attr mutable ""
attr unit bps
par Network.ospfRouter_7_2.ethg$o[2].channel ber 0
attr mutable ""
par Network.ospfRouter_7_2.ethg$o[2].channel per 0
attr mutable ""
par Network.ospfRouter_7_2.ethg$o[2].channel displayAsTooltip false
par Network.ospfRouter_7_2.ethg$o[2].channel thruputDisplayFormat "\"#N\""
par Network.ospfRouter_3_2.ethg$o[1].channel typename "\"inet.examples.ospfv2.sqsqtest.ISL0\""
par Network.ospfRouter_3_2.ethg$o[1].channel disabled false
attr mutable ""
par Network.ospfRouter_3_2.ethg$o[1].channel delay 0.013431s
attr mutable ""
attr unit s
par Network.ospfRouter_3_2.ethg$o[1].channel datarate 1e+07bps
attr mutable ""
attr unit bps
par Network.ospfRouter_3_2.ethg$o[1].channel ber 0
attr mutable ""
par Network.ospfRouter_3_2.ethg$o[1].channel per 0
attr mutable ""
par Network.ospfRouter_3_2.ethg$o[1].channel displayAsTooltip false
par Network.ospfRouter_3_2.ethg$o[1].channel thruputDisplayFormat "\"#N\""
par Network.ospfRouter_4_2.ethg$o[0].channel typename "\"inet.examples.ospfv2.sqsqtest.ISL0\""
par Network.ospfRouter_4_2.ethg$o[0].channel disabled false
attr mutable ""
par Network.ospfRouter_4_2.ethg$o[0].channel delay 0.013431s
attr mutable ""
attr unit s
par Network.ospfRouter_4_2.ethg$o[0].channel datarate 1e+07bps
attr mutable ""
attr unit bps
par Network.ospfRouter_4_2.ethg$o[0].channel ber 0
attr mutable ""
par Network.ospfRouter_4_2.ethg$o[0].channel per 0
attr mutable ""
par Network.ospfRouter_4_2.ethg$o[0].channel displayAsTooltip false
par Network.ospfRouter_4_2.ethg$o[0].channel thruputDisplayFormat "\"#N\""
par Network.ospfRouter_11_3.ethg$o[3].channel typename "\"inet.examples.ospfv2.sqsqtest.ISL11\""
par Network.ospfRouter_11_3.ethg$o[3].channel disabled false
attr mutable ""
par Network.ospfRouter_11_3.ethg$o[3].channel delay 0.009209s
attr mutable ""
attr unit s
par Network.ospfRouter_11_3.ethg$o[3].channel datarate 1e+07bps
attr mutable ""
attr unit bps
par Network.ospfRouter_11_3.ethg$o[3].channel ber 0
attr mutable ""
par Network.ospfRouter_11_3.ethg$o[3].channel per 0
attr mutable ""
par Network.ospfRouter_11_3.ethg$o[3].channel displayAsTooltip false
par Network.ospfRouter_11_3.ethg$o[3].channel thruputDisplayFormat "\"#N\""
par Network.ospfRouter_11_4.ethg$o[2].channel typename "\"inet.examples.ospfv2.sqsqtest.ISL11\""
par Network.ospfRouter_11_4.ethg$o[2].channel disabled false
attr mutable ""
par Network.ospfRouter_11_4.ethg$o[2].channel delay 0.009209s
attr mutable ""
attr unit s
par Network.ospfRouter_11_4.ethg$o[2].channel datarate 1e+07bps
attr mutable ""
attr unit bps
par Network.ospfRouter_11_4.ethg$o[2].channel ber 0
attr mutable ""
par Network.ospfRouter_11_4.ethg$o[2].channel per 0
attr mutable ""
par Network.ospfRouter_11_4.ethg$o[2].channel displayAsTooltip false
par Network.ospfRouter_11_4.ethg$o[2].channel thruputDisplayFormat "\"#N\""
par Network.ospfRouter_1_5.ethg$o[1].channel typename "\"inet.examples.ospfv2.sqsqtest.ISL0\""
par Network.ospfRouter_1_5.ethg$o[1].channel disabled false
attr mutable ""
par Network.ospfRouter_1_5.ethg$o[1].channel delay 0.013431s
attr mutable ""
attr unit s
par Network.ospfRouter_1_5.ethg$o[1].channel datarate 1e+07bps
attr mutable ""
attr unit bps
par Network.ospfRouter_1_5.ethg$o[1].channel ber 0
attr mutable ""
par Network.ospfRouter_1_5.ethg$o[1].channel per 0
attr mutable ""
par Network.ospfRouter_1_5.ethg$o[1].channel displayAsTooltip false
par Network.ospfRouter_1_5.ethg$o[1].channel thruputDisplayFormat "\"#N\""
par Network.ospfRouter_2_5.ethg$o[0].channel typename "\"inet.examples.ospfv2.sqsqtest.ISL0\""
par Network.ospfRouter_2_5.ethg$o[0].channel disabled false
attr mutable ""
par Network.ospfRouter_2_5.ethg$o[0].channel delay 0.013431s
attr mutable ""
attr unit s
par Network.ospfRouter_2_5.ethg$o[0].channel datarate 1e+07bps
attr mutable ""
attr unit bps
par Network.ospfRouter_2_5.ethg$o[0].channel ber 0
attr mutable ""
par Network.ospfRouter_2_5.ethg$o[0].channel per 0
attr mutable ""
par Network.ospfRouter_2_5.ethg$o[0].channel displayAsTooltip false
par Network.ospfRouter_2_5.ethg$o[0].channel thruputDisplayFormat "\"#N\""
[...]
par Network.ospfRouter_11_6.eth[1].queue bufferModule "\"\""
par Network.ospfRouter_11_6.eth[1].mac typename "\"inet.linklayer.ethernet.basic.EthernetMac\""
par Network.ospfRouter_11_6.eth[1].mac interfaceTableModule "\"Network.ospfRouter_11_6.interfaceTable\""
par Network.ospfRouter_11_6.eth[1].mac displayStringTextFormat "\"rate: %b\\nsent: %s, rcvd: %r\\nqueue: %q, drop: %d\""
par Network.ospfRouter_11_6.eth[1].mac sendRawBytes false
par Network.ospfRouter_11_6.eth[1].mac promiscuous false
par Network.ospfRouter_11_6.eth[1].mac duplexMode true
par Network.ospfRouter_11_6.eth[1].mac mtu 1500B
attr unit B
par Network.ospfRouter_11_6.eth[1].mac fcsMode "\"declared\""
attr enum declared,computed
par Network.ospfRouter_11_6.eth[1].mac stopOperationExtraTime -1s
attr unit s
par Network.ospfRouter_11_6.eth[1].mac stopOperationTimeout 2s
attr unit s
par Network.ospfRouter_11_6.eth[1] typename "\"inet.linklayer.ethernet.EthernetInterface\""
par Network.ospfRouter_11_6.eth[1] displayStringTextFormat "\"%a (%i)\\n%m\""
par Network.ospfRouter_11_6.eth[1] recordPcap false
par Network.ospfRouter_11_6.eth[1] numPcapRecorders 0
par Network.ospfRouter_11_6.eth[1] interfaceTableModule "\"Network.ospfRouter_11_6.interfaceTable\""
par Network.ospfRouter_11_6.eth[1] protocol "\"ethernetmac\""
par Network.ospfRouter_11_6.eth[1] address "\"0A-AA-00-00-01-06\""
attr mutable ""
par Network.ospfRouter_11_6.eth[1] duplexMode true
par Network.ospfRouter_11_6.eth[1] csmacdSupport false
par Network.ospfRouter_11_6.eth[1] bitrate 0bps
attr unit bps
par Network.ospfRouter_11_6.eth[1] fcsMode "\"declared\""
attr enum declared,computed
par Network.ospfRouter_11_6.eth[2].mac.phys$o.channel typename "\"ned.IdealChannel\""
par Network.ospfRouter_11_6.eth[2].phys$i.channel typename "\"ned.IdealChannel\""
par Network.ospfRouter_11_6.eth[2].upperLayerIn.channel typename "\"ned.IdealChannel\""
par Network.ospfRouter_11_6.eth[2].mac.upperLayerOut.channel typename "\"ned.IdealChannel\""
par Network.ospfRouter_11_6.eth[2].queue typename "\"inet.linklayer.ethernet.common.EthernetQueue\""
par Network.ospfRouter_11_6.eth[2].queue displayStringTextFormat "\"contains %p pk (%l) pushed %u\\npulled %o removed %r dropped %d\""
par Network.ospfRouter_11_6.eth[2].queue packetCapacity 100
par Network.ospfRouter_11_6.eth[2].queue dataCapacity -1b
attr unit b
par Network.ospfRouter_11_6.eth[2].queue dropperClass "\"inet::queueing::PacketAtCollectionEndDropper\""
par Network.ospfRouter_11_6.eth[2].queue comparatorClass "\"inet::EthernetFrameTypeComparator\""
par Network.ospfRouter_11_6.eth[2].queue bufferModule "\"\""
par Network.ospfRouter_11_6.eth[2].mac typename "\"inet.linklayer.ethernet.basic.EthernetMac\""
par Network.ospfRouter_11_6.eth[2].mac interfaceTableModule "\"Network.ospfRouter_11_6.interfaceTable\""
par Network.ospfRouter_11_6.eth[2].mac displayStringTextFormat "\"rate: %b\\nsent: %s, rcvd: %r\\nqueue: %q, drop: %d\""
par Network.ospfRouter_11_6.eth[2].mac sendRawBytes false
par Network.ospfRouter_11_6.eth[2].mac promiscuous false
par Network.ospfRouter_11_6.eth[2].mac duplexMode true
par Network.ospfRouter_11_6.eth[2].mac mtu 1500B
attr unit B
par Network.ospfRouter_11_6.eth[2].mac fcsMode "\"declared\""
attr enum declared,computed
par Network.ospfRouter_11_6.eth[2].mac stopOperationExtraTime -1s
attr unit s
par Network.ospfRouter_11_6.eth[2].mac stopOperationTimeout 2s
attr unit s
par Network.ospfRouter_11_6.eth[2] typename "\"inet.linklayer.ethernet.EthernetInterface\""
par Network.ospfRouter_11_6.eth[2] displayStringTextFormat "\"%a (%i)\\n%m\""
par Network.ospfRouter_11_6.eth[2] recordPcap false
par Network.ospfRouter_11_6.eth[2] numPcapRecorders 0
par Network.ospfRouter_11_6.eth[2] interfaceTableModule "\"Network.ospfRouter_11_6.interfaceTable\""
par Network.ospfRouter_11_6.eth[2] protocol "\"ethernetmac\""
par Network.ospfRouter_11_6.eth[2] address "\"0A-AA-00-00-01-07\""
attr mutable ""
par Network.ospfRouter_11_6.eth[2] duplexMode true
par Network.ospfRouter_11_6.eth[2] csmacdSupport false
par Network.ospfRouter_11_6.eth[2] bitrate 0bps
attr unit bps
par Network.ospfRouter_11_6.eth[2] fcsMode "\"declared\""
attr enum declared,computed
par Network.ospfRouter_11_6.eth[3].mac.phys$o.channel typename "\"ned.IdealChannel\""
par Network.ospfRouter_11_6.eth[3].phys$i.channel typename "\"ned.IdealChannel\""
par Network.ospfRouter_11_6.eth[3].upperLayerIn.channel typename "\"ned.IdealChannel\""
par Network.ospfRouter_11_6.eth[3].mac.upperLayerOut.channel typename "\"ned.IdealChannel\""
par Network.ospfRouter_11_6.eth[3].queue typename "\"inet.linklayer.ethernet.common.EthernetQueue\""
par Network.ospfRouter_11_6.eth[3].queue displayStringTextFormat "\"contains %p pk (%l) pushed %u\\npulled %o removed %r dropped %d\""
par Network.ospfRouter_11_6.eth[3].queue packetCapacity 100
par Network.ospfRouter_11_6.eth[3].queue dataCapacity -1b
attr unit b
par Network.ospfRouter_11_6.eth[3].queue dropperClass "\"inet::queueing::PacketAtCollectionEndDropper\""
par Network.ospfRouter_11_6.eth[3].queue comparatorClass "\"inet::EthernetFrameTypeComparator\""
par Network.ospfRouter_11_6.eth[3].queue bufferModule "\"\""
par Network.ospfRouter_11_6.eth[3].mac typename "\"inet.linklayer.ethernet.basic.EthernetMac\""
par Network.ospfRouter_11_6.eth[3].mac interfaceTableModule "\"Network.ospfRouter_11_6.interfaceTable\""
par Network.ospfRouter_11_6.eth[3].mac displayStringTextFormat "\"rate: %b\\nsent: %s, rcvd: %r\\nqueue: %q, drop: %d\""
par Network.ospfRouter_11_6.eth[3].mac sendRawBytes false
par Network.ospfRouter_11_6.eth[3].mac promiscuous false
par Network.ospfRouter_11_6.eth[3].mac duplexMode true
par Network.ospfRouter_11_6.eth[3].mac mtu 1500B
attr unit B
par Network.ospfRouter_11_6.eth[3].mac fcsMode "\"declared\""
attr enum declared,computed
par Network.ospfRouter_11_6.eth[3].mac stopOperationExtraTime -1s
attr unit s
par Network.ospfRouter_11_6.eth[3].mac stopOperationTimeout 2s
attr unit s
par Network.ospfRouter_11_6.eth[3] typename "\"inet.linklayer.ethernet.EthernetInterface\""
par Network.ospfRouter_11_6.eth[3] displayStringTextFormat "\"%a (%i)\\n%m\""
par Network.ospfRouter_11_6.eth[3] recordPcap false
par Network.ospfRouter_11_6.eth[3] numPcapRecorders 0
par Network.ospfRouter_11_6.eth[3] interfaceTableModule "\"Network.ospfRouter_11_6.interfaceTable\""
par Network.ospfRouter_11_6.eth[3] protocol "\"ethernetmac\""
par Network.ospfRouter_11_6.eth[3] address "\"0A-AA-00-00-01-08\""
attr mutable ""
par Network.ospfRouter_11_6.eth[3] duplexMode true
par Network.ospfRouter_11_6.eth[3] csmacdSupport false
par Network.ospfRouter_11_6.eth[3] bitrate 0bps
attr unit bps
par Network.ospfRouter_11_6.eth[3] fcsMode "\"declared\""
attr enum declared,computed
par Network.ospfRouter_11_6.ipv4.transportIn.channel typename "\"ned.IdealChannel\""
par Network.ospfRouter_11_6.ipv4.up.out[0].channel typename "\"ned.IdealChannel\""
par Network.ospfRouter_11_6.ipv4.lp.out[2].channel typename "\"ned.IdealChannel\""
par Network.ospfRouter_11_6.ipv4.ifIn.channel typename "\"ned.IdealChannel\""
par Network.ospfRouter_11_6.ipv4.configurator typename "\"inet.networklayer.configurator.ipv4.Ipv4NodeConfigurator\""
par Network.ospfRouter_11_6.ipv4.configurator interfaceTableModule "\"Network.ospfRouter_11_6.interfaceTable\""
par Network.ospfRouter_11_6.ipv4.configurator routingTableModule "\"Network.ospfRouter_11_6.ipv4.routingTable\""
par Network.ospfRouter_11_6.ipv4.configurator networkConfiguratorModule "\"configurator\""
par Network.ospfRouter_11_6.ipv4.configurator configureRoutingTable true
par Network.ospfRouter_11_6.ipv4.routingTable typename "\"inet.networklayer.ipv4.Ipv4RoutingTable\""
par Network.ospfRouter_11_6.ipv4.routingTable interfaceTableModule "\"Network.ospfRouter_11_6.interfaceTable\""
par Network.ospfRouter_11_6.ipv4.routingTable routerId "\"0.0.11.6\""
par Network.ospfRouter_11_6.ipv4.routingTable netmaskRoutes "\"*\""
par Network.ospfRouter_11_6.ipv4.routingTable forwarding true
par Network.ospfRouter_11_6.ipv4.routingTable multicastForwarding false
par Network.ospfRouter_11_6.ipv4.routingTable useAdminDist false
par Network.ospfRouter_11_6.ipv4.routingTable routingFile "\"\""
par Network.ospfRouter_11_6.ipv4.natTable typename "\"inet.networklayer.ipv4.Ipv4NatTable\""
par Network.ospfRouter_11_6.ipv4.natTable networkProtocolModule "\"^.ip\""
par Network.ospfRouter_11_6.ipv4.natTable config "<config/> at content:1"
par Network.ospfRouter_11_6.ipv4.up typename "\"inet.common.MessageDispatcher\""
par Network.ospfRouter_11_6.ipv4.up displayStringTextFormat "\"processed %p pk (%l)\""
par Network.ospfRouter_11_6.ipv4.up forwardServiceRegistration true
par Network.ospfRouter_11_6.ipv4.up forwardProtocolRegistration true
par Network.ospfRouter_11_6.ipv4.igmp typename "\"inet.networklayer.ipv4.Igmpv2\""
par Network.ospfRouter_11_6.ipv4.igmp interfaceTableModule "\"Network.ospfRouter_11_6.interfaceTable\""
par Network.ospfRouter_11_6.ipv4.igmp routingTableModule "\"Network.ospfRouter_11_6.ipv4.routingTable\""
par Network.ospfRouter_11_6.ipv4.igmp crcMode "\"declared\""
attr enum declared,computed
par Network.ospfRouter_11_6.ipv4.igmp enabled true
par Network.ospfRouter_11_6.ipv4.igmp robustnessVariable 2
par Network.ospfRouter_11_6.ipv4.igmp queryInterval 125s
attr unit s
par Network.ospfRouter_11_6.ipv4.igmp queryResponseInterval 10s
attr unit s
par Network.ospfRouter_11_6.ipv4.igmp groupMembershipInterval 260s
attr unit s
par Network.ospfRouter_11_6.ipv4.igmp otherQuerierPresentInterval 255s
attr unit s
par Network.ospfRouter_11_6.ipv4.igmp startupQueryInterval 31.25s
attr unit s
par Network.ospfRouter_11_6.ipv4.igmp startupQueryCount 2
par Network.ospfRouter_11_6.ipv4.igmp lastMemberQueryInterval 1s
attr unit s
par Network.ospfRouter_11_6.ipv4.igmp lastMemberQueryCount 2
par Network.ospfRouter_11_6.ipv4.igmp unsolicitedReportInterval 10s
attr unit s
par Network.ospfRouter_11_6.ipv4.icmp typename "\"inet.networklayer.ipv4.Icmp\""
par Network.ospfRouter_11_6.ipv4.icmp interfaceTableModule "\"Network.ospfRouter_11_6.interfaceTable\""
par Network.ospfRouter_11_6.ipv4.icmp routingTableModule "\"Network.ospfRouter_11_6.ipv4.routingTable\""
par Network.ospfRouter_11_6.ipv4.icmp crcMode "\"declared\""
attr enum declared,computed
attr mutable ""
par Network.ospfRouter_11_6.ipv4.icmp quoteLength 8B
attr mutable ""
attr unit B
par Network.ospfRouter_11_6.ipv4.mp typename "\"inet.common.MessageDispatcher\""
par Network.ospfRouter_11_6.ipv4.mp displayStringTextFormat "\"processed %p pk (%l)\""
par Network.ospfRouter_11_6.ipv4.mp forwardServiceRegistration true
par Network.ospfRouter_11_6.ipv4.mp forwardProtocolRegistration true
par Network.ospfRouter_11_6.ipv4.ip typename "\"inet.networklayer.ipv4.Ipv4\""
par Network.ospfRouter_11_6.ipv4.ip interfaceTableModule "\"Network.ospfRouter_11_6.interfaceTable\""
par Network.ospfRouter_11_6.ipv4.ip routingTableModule "\"Network.ospfRouter_11_6.ipv4.routingTable\""
par Network.ospfRouter_11_6.ipv4.ip arpModule "\"Network.ospfRouter_11_6.ipv4.arp\""
par Network.ospfRouter_11_6.ipv4.ip icmpModule "\"Network.ospfRouter_11_6.ipv4.icmp\""
par Network.ospfRouter_11_6.ipv4.ip crcMode "\"declared\""
attr enum declared,computed
par Network.ospfRouter_11_6.ipv4.ip timeToLive 255
par Network.ospfRouter_11_6.ipv4.ip multicastTimeToLive 32
par Network.ospfRouter_11_6.ipv4.ip fragmentTimeout 60s
attr unit s
par Network.ospfRouter_11_6.ipv4.ip limitedBroadcast false
par Network.ospfRouter_11_6.ipv4.ip directBroadcastInterfaces "\"\""
par Network.ospfRouter_11_6.ipv4.arp typename "\"inet.networklayer.arp.ipv4.Arp\""
par Network.ospfRouter_11_6.ipv4.arp interfaceTableModule "\"Network.ospfRouter_11_6.interfaceTable\""
par Network.ospfRouter_11_6.ipv4.arp routingTableModule "\"Network.ospfRouter_11_6.ipv4.routingTable\""
par Network.ospfRouter_11_6.ipv4.arp retryTimeout 1s
attr unit s
par Network.ospfRouter_11_6.ipv4.arp retryCount 3
par Network.ospfRouter_11_6.ipv4.arp cacheTimeout 10s
attr unit s
par Network.ospfRouter_11_6.ipv4.arp proxyArpInterfaces "\"*\""
par Network.ospfRouter_11_6.ipv4.lp typename "\"inet.common.MessageDispatcher\""
par Network.ospfRouter_11_6.ipv4.lp displayStringTextFormat "\"processed %p pk (%l)\""
par Network.ospfRouter_11_6.ipv4.lp forwardServiceRegistration true
par Network.ospfRouter_11_6.ipv4.lp forwardProtocolRegistration true
par Network.ospfRouter_11_6.ipv4 typename "\"inet.networklayer.ipv4.Ipv4NetworkLayer\""
par Network.ospfRouter_11_6.ipv4 forwarding true
par Network.ospfRouter_11_6.ipv4 multicastForwarding false
par Network.ospfRouter_11_6.ipv4 interfaceTableModule "\"Network.ospfRouter_11_6.interfaceTable\""
par Network.ospfRouter_11_6.ipv4 displayStringTextFormat "\"%i\""
par Network.ospfRouter_11_6.nl typename "\"inet.common.MessageDispatcher\""
par Network.ospfRouter_11_6.nl displayStringTextFormat "\"processed %p pk (%l)\""
par Network.ospfRouter_11_6.nl forwardServiceRegistration true
par Network.ospfRouter_11_6.nl forwardProtocolRegistration true
par Network.ospfRouter_11_6.udp typename "\"inet.transportlayer.udp.Udp\""
par Network.ospfRouter_11_6.udp interfaceTableModule "\"Network.ospfRouter_11_6.interfaceTable\""
par Network.ospfRouter_11_6.udp icmpModule "\"^.ipv4.icmp\""
par Network.ospfRouter_11_6.udp icmpv6Module "\"^.ipv6.icmpv6\""
par Network.ospfRouter_11_6.udp crcMode "\"declared\""
attr enum disabled,declared,computed
par Network.ospfRouter_11_6.udp defaultMulticastLoop true
par Network.ospfRouter_11_6.tn typename "\"inet.common.MessageDispatcher\""
par Network.ospfRouter_11_6.tn displayStringTextFormat "\"processed %p pk (%l)\""
par Network.ospfRouter_11_6.tn forwardServiceRegistration true
par Network.ospfRouter_11_6.tn forwardProtocolRegistration true
par Network.ospfRouter_11_6.app[0] typename "\"inet.applications.udpapp.UdpBasicApp\""
par Network.ospfRouter_11_6.app[0] interfaceTableModule "\"Network.ospfRouter_11_6.interfaceTable\""
par Network.ospfRouter_11_6.app[0] clockModule "\"\""
par Network.ospfRouter_11_6.app[0] localPort -1
par Network.ospfRouter_11_6.app[0] destAddresses "\"\""
par Network.ospfRouter_11_6.app[0] localAddress "\"\""
par Network.ospfRouter_11_6.app[0] packetName "\"UdpBasicAppData\""
par Network.ospfRouter_11_6.app[0] destPort 1234
par Network.ospfRouter_11_6.app[0] messageLength 1024B
attr unit B
par Network.ospfRouter_11_6.app[0] startTime 20s
attr unit s
par Network.ospfRouter_11_6.app[0] stopTime 120s
attr unit s
par Network.ospfRouter_11_6.app[0] sendInterval 0.002s
attr unit s
par Network.ospfRouter_11_6.app[0] timeToLive -1
par Network.ospfRouter_11_6.app[0] dontFragment false
par Network.ospfRouter_11_6.app[0] dscp -1
par Network.ospfRouter_11_6.app[0] tos -1
par Network.ospfRouter_11_6.app[0] multicastInterface "\"\""
par Network.ospfRouter_11_6.app[0] receiveBroadcast false
par Network.ospfRouter_11_6.app[0] joinLocalMulticastGroups false
par Network.ospfRouter_11_6.app[0] stopOperationExtraTime -1s
attr unit s
par Network.ospfRouter_11_6.app[0] stopOperationTimeout 2s
attr unit s
par Network.ospfRouter_11_6.app[1] typename "\"inet.applications.udpapp.UdpBasicApp\""
par Network.ospfRouter_11_6.app[1] interfaceTableModule "\"Network.ospfRouter_11_6.interfaceTable\""
par Network.ospfRouter_11_6.app[1] clockModule "\"\""
par Network.ospfRouter_11_6.app[1] localPort 1234
par Network.ospfRouter_11_6.app[1] destAddresses "\"\""
par Network.ospfRouter_11_6.app[1] localAddress "\"\""
par Network.ospfRouter_11_6.app[1] packetName "\"UdpBasicAppData\""
par Network.ospfRouter_11_6.app[1] destPort 1111
par Network.ospfRouter_11_6.app[1] messageLength 32B
attr unit B
par Network.ospfRouter_11_6.app[1] startTime 0.1s
attr unit s
par Network.ospfRouter_11_6.app[1] stopTime -1s
attr unit s
par Network.ospfRouter_11_6.app[1] sendInterval 0.1s
attr unit s
par Network.ospfRouter_11_6.app[1] timeToLive -1
par Network.ospfRouter_11_6.app[1] dontFragment false
par Network.ospfRouter_11_6.app[1] dscp -1
par Network.ospfRouter_11_6.app[1] tos -1
par Network.ospfRouter_11_6.app[1] multicastInterface "\"\""
par Network.ospfRouter_11_6.app[1] receiveBroadcast false
par Network.ospfRouter_11_6.app[1] joinLocalMulticastGroups false
par Network.ospfRouter_11_6.app[1] stopOperationExtraTime -1s
attr unit s
par Network.ospfRouter_11_6.app[1] stopOperationTimeout 2s
attr unit s
par Network.ospfRouter_11_6.at typename "\"inet.common.MessageDispatcher\""
par Network.ospfRouter_11_6.at displayStringTextFormat "\"processed %p pk (%l)\""
par Network.ospfRouter_11_6.at forwardServiceRegistration true
par Network.ospfRouter_11_6.at forwardProtocolRegistration true
par Network.ospfRouter_11_6.ospf typename "\"inet.routing.ospfv2.Ospfv2\""
par Network.ospfRouter_11_6.ospf interfaceTableModule "\"Network.ospfRouter_11_6.interfaceTable\""
par Network.ospfRouter_11_6.ospf routingTableModule "\"^.ipv4.routingTable\""
par Network.ospfRouter_11_6.ospf crcMode "\"declared\""
attr enum declared,computed
par Network.ospfRouter_11_6.ospf startupTime 0s
attr unit s
par Network.ospfRouter_11_6.ospf ospfConfig "<OSPFASConfig xmlns:xsi=\"http://www.w3.org/2001/XMLSchema-instance\" xsi:schemaLocation=\"OSPF.xsd\">...</OSPFASConfig> at /home/sqsq/Desktop/sat-ospf/inet/examples/ospfv2/sqsqtest//sqsqASConfig.xml:2"
par Network.ospfRouter_11_6.ospf routerPriority 1
par Network.ospfRouter_11_6.ospf areaID "\"0.0.0.0\""
par Network.ospfRouter_11_6.ospf RFC1583Compatible false
par Network.ospfRouter_11_6.ospf DistributeDefaultRoute false
par Network.ospfRouter_11_6.ospf helloInterval 1s
attr unit s
par Network.ospfRouter_11_6.ospf pollInterval 120s
attr unit s
par Network.ospfRouter_11_6.ospf routerDeadInterval 4s
attr unit s
par Network.ospfRouter_11_6.ospf retransmissionInterval 2s
attr unit s
par Network.ospfRouter_11_6.ospf interfaceTransmissionDelay 1s
attr unit s
par Network.ospfRouter_11_6.ospf interfaceMode "\"Active\""
attr enum Active,Passive,NoOSPF
par Network.ospfRouter_11_6.ospf referenceBandwidth 100000000bps
attr unit bps
par Network.ospfRouter_11_6.ospf interfaceOutputCost 0
par Network.ospfRouter_11_6.ospf externalInterfaceOutputCost 1
par Network.ospfRouter_11_6.ospf externalInterfaceOutputType "\"Type2\""
par Network.ospfRouter_11_6.ospf forwardingAddress "\"0.0.0.0\""
par Network.ospfRouter_11_6.ospf linkCost 1
par Network.ospfRouter_11_6.ospf authenticationType "\"NullType\""
attr enum SimplePasswordType,CrytographicType,NullType
par Network.ospfRouter_11_6.ospf authenticationKey "\"0x00\""
par Network.ospfRouter_11_6 typename "\"inet.examples.ospfv2.sqsqtest.SqsqRouter\""
par Network.ospfRouter_11_6 hasStatus true
par Network.ospfRouter_11_6 osgModel "\"\""
par Network.ospfRouter_11_6 osgModelColor "\"\""
par Network.ospfRouter_11_6 canvasImage "\"\""
par Network.ospfRouter_11_6 canvasImageColor "\"\""
par Network.ospfRouter_11_6 recordPcap false
par Network.ospfRouter_11_6 numPcapRecorders 0
par Network.ospfRouter_11_6 numLoInterfaces 1
par Network.ospfRouter_11_6 numWlanInterfaces 0
par Network.ospfRouter_11_6 numEthInterfaces 0
par Network.ospfRouter_11_6 numPppInterfaces 0
par Network.ospfRouter_11_6 numTunInterfaces 0
par Network.ospfRouter_11_6 numVirtInterfaces 0
par Network.ospfRouter_11_6 fcsMode "\"declared\""
attr enum declared,computed
par Network.ospfRouter_11_6 hasIpv4 true
par Network.ospfRouter_11_6 hasIpv6 false
par Network.ospfRouter_11_6 hasGn false
par Network.ospfRouter_11_6 forwarding true
par Network.ospfRouter_11_6 multicastForwarding false
par Network.ospfRouter_11_6 hasUdp true
par Network.ospfRouter_11_6 hasTcp false
par Network.ospfRouter_11_6 hasSctp false
par Network.ospfRouter_11_6 numApps 2
par Network.ospfRouter_11_6 hasEigrp false
par Network.ospfRouter_11_6 hasOspf true
par Network.ospfRouter_11_6 hasRip false
par Network.ospfRouter_11_6 hasBgp false
par Network.ospfRouter_11_6 hasPim false
par Network.ospfRouter_11_6 hasDhcp false
par Network typename "\"inet.examples.ospfv2.sqsqtest.Network\""

